* NGSPICE file created from SPM_example.ext - technology: sky130A

* Black-box entry subcircuit for sky130_fd_sc_hd__tapvpwrvgnd_1 abstract view
.subckt sky130_fd_sc_hd__tapvpwrvgnd_1 VGND VPWR
.ends

* Black-box entry subcircuit for sky130_fd_sc_hd__decap_12 abstract view
.subckt sky130_fd_sc_hd__decap_12 VGND VNB VPB VPWR
.ends

* Black-box entry subcircuit for sky130_fd_sc_hd__clkbuf_2 abstract view
.subckt sky130_fd_sc_hd__clkbuf_2 A VGND VNB VPB VPWR X
.ends

* Black-box entry subcircuit for sky130_fd_sc_hd__fill_1 abstract view
.subckt sky130_fd_sc_hd__fill_1 VGND VNB VPB VPWR
.ends

* Black-box entry subcircuit for sky130_fd_sc_hd__decap_6 abstract view
.subckt sky130_fd_sc_hd__decap_6 VGND VNB VPB VPWR
.ends

* Black-box entry subcircuit for sky130_fd_sc_hd__decap_4 abstract view
.subckt sky130_fd_sc_hd__decap_4 VGND VNB VPB VPWR
.ends

* Black-box entry subcircuit for sky130_fd_sc_hd__decap_3 abstract view
.subckt sky130_fd_sc_hd__decap_3 VGND VNB VPB VPWR
.ends

* Black-box entry subcircuit for sky130_fd_sc_hd__decap_8 abstract view
.subckt sky130_fd_sc_hd__decap_8 VGND VNB VPB VPWR
.ends

* Black-box entry subcircuit for sky130_fd_sc_hd__fill_2 abstract view
.subckt sky130_fd_sc_hd__fill_2 VGND VNB VPB VPWR
.ends

* Black-box entry subcircuit for sky130_fd_sc_hd__o21ai_1 abstract view
.subckt sky130_fd_sc_hd__o21ai_1 A1 A2 B1 VGND VNB VPB VPWR Y
.ends

* Black-box entry subcircuit for sky130_fd_sc_hd__and3_1 abstract view
.subckt sky130_fd_sc_hd__and3_1 A B C VGND VNB VPB VPWR X
.ends

* Black-box entry subcircuit for sky130_fd_sc_hd__dfrtp_1 abstract view
.subckt sky130_fd_sc_hd__dfrtp_1 CLK D RESET_B VGND VNB VPB VPWR Q
.ends

* Black-box entry subcircuit for sky130_fd_sc_hd__mux2_1 abstract view
.subckt sky130_fd_sc_hd__mux2_1 A0 A1 S VGND VNB VPB VPWR X
.ends

* Black-box entry subcircuit for sky130_fd_sc_hd__clkbuf_1 abstract view
.subckt sky130_fd_sc_hd__clkbuf_1 A VGND VNB VPB VPWR X
.ends

* Black-box entry subcircuit for sky130_fd_sc_hd__o21ba_1 abstract view
.subckt sky130_fd_sc_hd__o21ba_1 A1 A2 B1_N VGND VNB VPB VPWR X
.ends

* Black-box entry subcircuit for sky130_fd_sc_hd__nor2_1 abstract view
.subckt sky130_fd_sc_hd__nor2_1 A B VGND VNB VPB VPWR Y
.ends

* Black-box entry subcircuit for sky130_fd_sc_hd__inv_2 abstract view
.subckt sky130_fd_sc_hd__inv_2 A VGND VNB VPB VPWR Y
.ends

* Black-box entry subcircuit for sky130_fd_sc_hd__nor3b_1 abstract view
.subckt sky130_fd_sc_hd__nor3b_1 A B C_N VGND VNB VPB VPWR Y
.ends

* Black-box entry subcircuit for sky130_fd_sc_hd__buf_2 abstract view
.subckt sky130_fd_sc_hd__buf_2 A VGND VNB VPB VPWR X
.ends

* Black-box entry subcircuit for sky130_fd_sc_hd__a21o_1 abstract view
.subckt sky130_fd_sc_hd__a21o_1 A1 A2 B1 VGND VNB VPB VPWR X
.ends

* Black-box entry subcircuit for sky130_fd_sc_hd__dfrtp_4 abstract view
.subckt sky130_fd_sc_hd__dfrtp_4 CLK D RESET_B VGND VNB VPB VPWR Q
.ends

* Black-box entry subcircuit for sky130_fd_sc_hd__clkbuf_4 abstract view
.subckt sky130_fd_sc_hd__clkbuf_4 A VGND VNB VPB VPWR X
.ends

* Black-box entry subcircuit for sky130_fd_sc_hd__o21ai_2 abstract view
.subckt sky130_fd_sc_hd__o21ai_2 A1 A2 B1 VGND VNB VPB VPWR Y
.ends

* Black-box entry subcircuit for sky130_fd_sc_hd__o31a_1 abstract view
.subckt sky130_fd_sc_hd__o31a_1 A1 A2 A3 B1 VGND VNB VPB VPWR X
.ends

* Black-box entry subcircuit for sky130_fd_sc_hd__clkbuf_16 abstract view
.subckt sky130_fd_sc_hd__clkbuf_16 A VGND VNB VPB VPWR X
.ends

* Black-box entry subcircuit for sky130_fd_sc_hd__dlymetal6s2s_1 abstract view
.subckt sky130_fd_sc_hd__dlymetal6s2s_1 A VGND VNB VPB VPWR X
.ends

* Black-box entry subcircuit for sky130_fd_sc_hd__and4bb_1 abstract view
.subckt sky130_fd_sc_hd__and4bb_1 A_N B_N C D VGND VNB VPB VPWR X
.ends

* Black-box entry subcircuit for sky130_fd_sc_hd__a21oi_1 abstract view
.subckt sky130_fd_sc_hd__a21oi_1 A1 A2 B1 VGND VNB VPB VPWR Y
.ends

* Black-box entry subcircuit for sky130_fd_sc_hd__nand2_2 abstract view
.subckt sky130_fd_sc_hd__nand2_2 A B VGND VNB VPB VPWR Y
.ends

* Black-box entry subcircuit for sky130_fd_sc_hd__o211ai_1 abstract view
.subckt sky130_fd_sc_hd__o211ai_1 A1 A2 B1 C1 VGND VNB VPB VPWR Y
.ends

* Black-box entry subcircuit for sky130_fd_sc_hd__and2_1 abstract view
.subckt sky130_fd_sc_hd__and2_1 A B VGND VNB VPB VPWR X
.ends

* Black-box entry subcircuit for sky130_fd_sc_hd__o2bb2a_1 abstract view
.subckt sky130_fd_sc_hd__o2bb2a_1 A1_N A2_N B1 B2 VGND VNB VPB VPWR X
.ends

* Black-box entry subcircuit for sky130_fd_sc_hd__nor4_1 abstract view
.subckt sky130_fd_sc_hd__nor4_1 A B C D VGND VNB VPB VPWR Y
.ends

* Black-box entry subcircuit for sky130_fd_sc_hd__buf_4 abstract view
.subckt sky130_fd_sc_hd__buf_4 A VGND VNB VPB VPWR X
.ends

* Black-box entry subcircuit for sky130_fd_sc_hd__nand3_2 abstract view
.subckt sky130_fd_sc_hd__nand3_2 A B C VGND VNB VPB VPWR Y
.ends

* Black-box entry subcircuit for sky130_fd_sc_hd__nand2_1 abstract view
.subckt sky130_fd_sc_hd__nand2_1 A B VGND VNB VPB VPWR Y
.ends

* Black-box entry subcircuit for sky130_fd_sc_hd__a22o_1 abstract view
.subckt sky130_fd_sc_hd__a22o_1 A1 A2 B1 B2 VGND VNB VPB VPWR X
.ends

* Black-box entry subcircuit for sky130_fd_sc_hd__o22a_1 abstract view
.subckt sky130_fd_sc_hd__o22a_1 A1 A2 B1 B2 VGND VNB VPB VPWR X
.ends

* Black-box entry subcircuit for sky130_fd_sc_hd__o21bai_4 abstract view
.subckt sky130_fd_sc_hd__o21bai_4 A1 A2 B1_N VGND VNB VPB VPWR Y
.ends

* Black-box entry subcircuit for sky130_fd_sc_hd__and3b_1 abstract view
.subckt sky130_fd_sc_hd__and3b_1 A_N B C VGND VNB VPB VPWR X
.ends

* Black-box entry subcircuit for sky130_fd_sc_hd__a31o_1 abstract view
.subckt sky130_fd_sc_hd__a31o_1 A1 A2 A3 B1 VGND VNB VPB VPWR X
.ends

* Black-box entry subcircuit for sky130_fd_sc_hd__nand3_4 abstract view
.subckt sky130_fd_sc_hd__nand3_4 A B C VGND VNB VPB VPWR Y
.ends

* Black-box entry subcircuit for sky130_fd_sc_hd__o211ai_2 abstract view
.subckt sky130_fd_sc_hd__o211ai_2 A1 A2 B1 C1 VGND VNB VPB VPWR Y
.ends

* Black-box entry subcircuit for sky130_fd_sc_hd__and4_1 abstract view
.subckt sky130_fd_sc_hd__and4_1 A B C D VGND VNB VPB VPWR X
.ends

* Black-box entry subcircuit for sky130_fd_sc_hd__nor2_4 abstract view
.subckt sky130_fd_sc_hd__nor2_4 A B VGND VNB VPB VPWR Y
.ends

* Black-box entry subcircuit for sky130_fd_sc_hd__dfxtp_1 abstract view
.subckt sky130_fd_sc_hd__dfxtp_1 CLK D VGND VNB VPB VPWR Q
.ends

* Black-box entry subcircuit for sky130_fd_sc_hd__nand4_4 abstract view
.subckt sky130_fd_sc_hd__nand4_4 A B C D VGND VNB VPB VPWR Y
.ends

* Black-box entry subcircuit for sky130_fd_sc_hd__or4_2 abstract view
.subckt sky130_fd_sc_hd__or4_2 A B C D VGND VNB VPB VPWR X
.ends

* Black-box entry subcircuit for sky130_fd_sc_hd__a2bb2o_1 abstract view
.subckt sky130_fd_sc_hd__a2bb2o_1 A1_N A2_N B1 B2 VGND VNB VPB VPWR X
.ends

* Black-box entry subcircuit for sky130_fd_sc_hd__clkinv_2 abstract view
.subckt sky130_fd_sc_hd__clkinv_2 A VGND VNB VPB VPWR Y
.ends

* Black-box entry subcircuit for sky130_fd_sc_hd__or4b_2 abstract view
.subckt sky130_fd_sc_hd__or4b_2 A B C D_N VGND VNB VPB VPWR X
.ends

* Black-box entry subcircuit for sky130_fd_sc_hd__o21bai_1 abstract view
.subckt sky130_fd_sc_hd__o21bai_1 A1 A2 B1_N VGND VNB VPB VPWR Y
.ends

* Black-box entry subcircuit for sky130_fd_sc_hd__buf_6 abstract view
.subckt sky130_fd_sc_hd__buf_6 A VGND VNB VPB VPWR X
.ends

* Black-box entry subcircuit for sky130_fd_sc_hd__o21a_1 abstract view
.subckt sky130_fd_sc_hd__o21a_1 A1 A2 B1 VGND VNB VPB VPWR X
.ends

* Black-box entry subcircuit for sky130_fd_sc_hd__nor2_8 abstract view
.subckt sky130_fd_sc_hd__nor2_8 A B VGND VNB VPB VPWR Y
.ends

* Black-box entry subcircuit for sky130_fd_sc_hd__buf_8 abstract view
.subckt sky130_fd_sc_hd__buf_8 A VGND VNB VPB VPWR X
.ends

* Black-box entry subcircuit for sky130_fd_sc_hd__a41o_1 abstract view
.subckt sky130_fd_sc_hd__a41o_1 A1 A2 A3 A4 B1 VGND VNB VPB VPWR X
.ends

* Black-box entry subcircuit for sky130_fd_sc_hd__nand3_1 abstract view
.subckt sky130_fd_sc_hd__nand3_1 A B C VGND VNB VPB VPWR Y
.ends

* Black-box entry subcircuit for sky130_fd_sc_hd__o221ai_1 abstract view
.subckt sky130_fd_sc_hd__o221ai_1 A1 A2 B1 B2 C1 VGND VNB VPB VPWR Y
.ends

* Black-box entry subcircuit for sky130_fd_sc_hd__and2b_1 abstract view
.subckt sky130_fd_sc_hd__and2b_1 A_N B VGND VNB VPB VPWR X
.ends

* Black-box entry subcircuit for sky130_fd_sc_hd__dfrtp_2 abstract view
.subckt sky130_fd_sc_hd__dfrtp_2 CLK D RESET_B VGND VNB VPB VPWR Q
.ends

* Black-box entry subcircuit for sky130_fd_sc_hd__nand4_1 abstract view
.subckt sky130_fd_sc_hd__nand4_1 A B C D VGND VNB VPB VPWR Y
.ends

* Black-box entry subcircuit for sky130_fd_sc_hd__diode_2 abstract view
.subckt sky130_fd_sc_hd__diode_2 DIODE VGND VNB VPB VPWR
.ends

* Black-box entry subcircuit for sky130_fd_sc_hd__o21ai_4 abstract view
.subckt sky130_fd_sc_hd__o21ai_4 A1 A2 B1 VGND VNB VPB VPWR Y
.ends

* Black-box entry subcircuit for sky130_fd_sc_hd__or2b_1 abstract view
.subckt sky130_fd_sc_hd__or2b_1 A B_N VGND VNB VPB VPWR X
.ends

* Black-box entry subcircuit for sky130_fd_sc_hd__nand3b_2 abstract view
.subckt sky130_fd_sc_hd__nand3b_2 A_N B C VGND VNB VPB VPWR Y
.ends

.subckt SPM_example VGND VPWR wb_clk_i wb_rst_i wbs_ack_o wbs_adr_i[0] wbs_adr_i[10]
+ wbs_adr_i[11] wbs_adr_i[12] wbs_adr_i[13] wbs_adr_i[14] wbs_adr_i[15] wbs_adr_i[16]
+ wbs_adr_i[17] wbs_adr_i[18] wbs_adr_i[19] wbs_adr_i[1] wbs_adr_i[20] wbs_adr_i[21]
+ wbs_adr_i[22] wbs_adr_i[23] wbs_adr_i[24] wbs_adr_i[25] wbs_adr_i[26] wbs_adr_i[27]
+ wbs_adr_i[28] wbs_adr_i[29] wbs_adr_i[2] wbs_adr_i[30] wbs_adr_i[31] wbs_adr_i[3]
+ wbs_adr_i[4] wbs_adr_i[5] wbs_adr_i[6] wbs_adr_i[7] wbs_adr_i[8] wbs_adr_i[9] wbs_cyc_i
+ wbs_dat_i[0] wbs_dat_i[10] wbs_dat_i[11] wbs_dat_i[12] wbs_dat_i[13] wbs_dat_i[14]
+ wbs_dat_i[15] wbs_dat_i[16] wbs_dat_i[17] wbs_dat_i[18] wbs_dat_i[19] wbs_dat_i[1]
+ wbs_dat_i[20] wbs_dat_i[21] wbs_dat_i[22] wbs_dat_i[23] wbs_dat_i[24] wbs_dat_i[25]
+ wbs_dat_i[26] wbs_dat_i[27] wbs_dat_i[28] wbs_dat_i[29] wbs_dat_i[2] wbs_dat_i[30]
+ wbs_dat_i[31] wbs_dat_i[3] wbs_dat_i[4] wbs_dat_i[5] wbs_dat_i[6] wbs_dat_i[7] wbs_dat_i[8]
+ wbs_dat_i[9] wbs_dat_o[0] wbs_dat_o[10] wbs_dat_o[11] wbs_dat_o[12] wbs_dat_o[13]
+ wbs_dat_o[14] wbs_dat_o[15] wbs_dat_o[16] wbs_dat_o[17] wbs_dat_o[18] wbs_dat_o[19]
+ wbs_dat_o[1] wbs_dat_o[20] wbs_dat_o[21] wbs_dat_o[22] wbs_dat_o[23] wbs_dat_o[24]
+ wbs_dat_o[25] wbs_dat_o[26] wbs_dat_o[27] wbs_dat_o[28] wbs_dat_o[29] wbs_dat_o[2]
+ wbs_dat_o[30] wbs_dat_o[31] wbs_dat_o[3] wbs_dat_o[4] wbs_dat_o[5] wbs_dat_o[6]
+ wbs_dat_o[7] wbs_dat_o[8] wbs_dat_o[9] wbs_sel_i[0] wbs_sel_i[1] wbs_sel_i[2] wbs_sel_i[3]
+ wbs_stb_i wbs_we_i
XTAP_199 VGND VPWR sky130_fd_sc_hd__tapvpwrvgnd_1
XFILLER_39_211 VGND VGND VPWR VPWR sky130_fd_sc_hd__decap_12
XFILLER_82_501 VGND VGND VPWR VPWR sky130_fd_sc_hd__decap_12
XFILLER_39_255 VGND VGND VPWR VPWR sky130_fd_sc_hd__decap_12
XFILLER_82_545 VGND VGND VPWR VPWR sky130_fd_sc_hd__decap_12
X_2106_ _2213_/A VGND VGND VPWR VPWR _2194_/A sky130_fd_sc_hd__clkbuf_2
X_2037_ _2285_/A VGND VGND VPWR VPWR _2083_/A sky130_fd_sc_hd__clkbuf_2
XFILLER_42_409 VGND VGND VPWR VPWR sky130_fd_sc_hd__fill_1
XFILLER_35_461 VGND VGND VPWR VPWR sky130_fd_sc_hd__decap_6
XFILLER_22_111 VGND VGND VPWR VPWR sky130_fd_sc_hd__decap_4
XFILLER_52_29 VGND VGND VPWR VPWR sky130_fd_sc_hd__decap_12
XFILLER_22_166 VGND VGND VPWR VPWR sky130_fd_sc_hd__decap_3
XFILLER_89_111 VGND VGND VPWR VPWR sky130_fd_sc_hd__fill_1
XFILLER_77_15 VGND VGND VPWR VPWR sky130_fd_sc_hd__decap_12
XFILLER_77_317 VGND VGND VPWR VPWR sky130_fd_sc_hd__decap_12
XFILLER_58_531 VGND VGND VPWR VPWR sky130_fd_sc_hd__fill_1
XFILLER_92_309 VGND VGND VPWR VPWR sky130_fd_sc_hd__decap_12
XFILLER_73_501 VGND VGND VPWR VPWR sky130_fd_sc_hd__decap_3
XFILLER_45_225 VGND VGND VPWR VPWR sky130_fd_sc_hd__decap_8
XFILLER_93_69 VGND VGND VPWR VPWR sky130_fd_sc_hd__decap_12
XFILLER_26_41 VGND VGND VPWR VPWR sky130_fd_sc_hd__decap_12
XFILLER_26_472 VGND VGND VPWR VPWR sky130_fd_sc_hd__decap_4
XFILLER_13_111 VGND VGND VPWR VPWR sky130_fd_sc_hd__fill_1
XFILLER_26_85 VGND VGND VPWR VPWR sky130_fd_sc_hd__decap_12
XFILLER_41_486 VGND VGND VPWR VPWR sky130_fd_sc_hd__decap_4
XFILLER_68_306 VGND VGND VPWR VPWR sky130_fd_sc_hd__fill_2
XFILLER_95_125 VGND VGND VPWR VPWR sky130_fd_sc_hd__decap_12
X_1270_ _1268_/X _1263_/X _1269_/Y VGND VGND VPWR VPWR _1270_/Y sky130_fd_sc_hd__o21ai_1
XFILLER_95_169 VGND VGND VPWR VPWR sky130_fd_sc_hd__decap_12
XFILLER_76_361 VGND VGND VPWR VPWR sky130_fd_sc_hd__decap_3
XFILLER_49_553 VGND VGND VPWR VPWR sky130_fd_sc_hd__decap_6
XFILLER_64_512 VGND VGND VPWR VPWR sky130_fd_sc_hd__decap_12
XFILLER_64_567 VGND VGND VPWR VPWR sky130_fd_sc_hd__decap_6
XFILLER_51_228 VGND VGND VPWR VPWR sky130_fd_sc_hd__decap_12
X_1606_ _2445_/Q _2444_/Q _1606_/C VGND VGND VPWR VPWR _1612_/C sky130_fd_sc_hd__and3_1
X_2586_ _2593_/CLK _2586_/D _2350_/Y VGND VGND VPWR VPWR _2586_/Q sky130_fd_sc_hd__dfrtp_1
X_1537_ input48/X _2429_/Q _1545_/S VGND VGND VPWR VPWR _1538_/A sky130_fd_sc_hd__mux2_1
X_1468_ _1468_/A VGND VGND VPWR VPWR _2469_/D sky130_fd_sc_hd__clkbuf_1
XFILLER_74_309 VGND VGND VPWR VPWR sky130_fd_sc_hd__decap_12
X_1399_ _1399_/A VGND VGND VPWR VPWR _2500_/D sky130_fd_sc_hd__clkbuf_1
XTAP_1129 VGND VPWR sky130_fd_sc_hd__tapvpwrvgnd_1
XTAP_1118 VGND VPWR sky130_fd_sc_hd__tapvpwrvgnd_1
XTAP_1107 VGND VPWR sky130_fd_sc_hd__tapvpwrvgnd_1
XFILLER_63_39 VGND VGND VPWR VPWR sky130_fd_sc_hd__decap_12
XFILLER_70_559 VGND VGND VPWR VPWR sky130_fd_sc_hd__decap_4
XFILLER_35_291 VGND VGND VPWR VPWR sky130_fd_sc_hd__decap_4
XFILLER_50_250 VGND VGND VPWR VPWR sky130_fd_sc_hd__fill_2
XFILLER_10_136 VGND VGND VPWR VPWR sky130_fd_sc_hd__decap_4
XFILLER_12_65 VGND VGND VPWR VPWR sky130_fd_sc_hd__decap_12
XFILLER_2_302 VGND VGND VPWR VPWR sky130_fd_sc_hd__decap_6
XFILLER_77_125 VGND VGND VPWR VPWR sky130_fd_sc_hd__decap_12
XFILLER_92_139 VGND VGND VPWR VPWR sky130_fd_sc_hd__fill_1
XFILLER_73_320 VGND VGND VPWR VPWR sky130_fd_sc_hd__decap_12
XFILLER_37_51 VGND VGND VPWR VPWR sky130_fd_sc_hd__decap_4
XFILLER_26_291 VGND VGND VPWR VPWR sky130_fd_sc_hd__decap_12
XFILLER_14_475 VGND VGND VPWR VPWR sky130_fd_sc_hd__fill_1
X_2440_ _2446_/CLK _2440_/D _1923_/Y VGND VGND VPWR VPWR _2440_/Q sky130_fd_sc_hd__dfrtp_1
X_2371_ _2497_/CLK _2371_/D _1837_/Y VGND VGND VPWR VPWR _2371_/Q sky130_fd_sc_hd__dfrtp_1
XFILLER_96_445 VGND VGND VPWR VPWR sky130_fd_sc_hd__decap_3
X_1322_ _1320_/X _1313_/X _1321_/Y VGND VGND VPWR VPWR _1322_/Y sky130_fd_sc_hd__o21ai_1
XFILLER_96_489 VGND VGND VPWR VPWR sky130_fd_sc_hd__decap_12
X_1253_ input49/X _1246_/X _1252_/X VGND VGND VPWR VPWR _1253_/X sky130_fd_sc_hd__o21ba_1
XFILLER_56_309 VGND VGND VPWR VPWR sky130_fd_sc_hd__decap_12
XFILLER_37_512 VGND VGND VPWR VPWR sky130_fd_sc_hd__decap_4
XFILLER_37_523 VGND VGND VPWR VPWR sky130_fd_sc_hd__decap_12
X_1184_ _1184_/A _1184_/B VGND VGND VPWR VPWR _1187_/B sky130_fd_sc_hd__nor2_1
XFILLER_91_161 VGND VGND VPWR VPWR sky130_fd_sc_hd__decap_6
XFILLER_20_489 VGND VGND VPWR VPWR sky130_fd_sc_hd__decap_4
X_2569_ _2575_/CLK _2569_/D _2328_/Y VGND VGND VPWR VPWR _2569_/Q sky130_fd_sc_hd__dfrtp_1
XFILLER_59_125 VGND VGND VPWR VPWR sky130_fd_sc_hd__decap_12
XFILLER_59_169 VGND VGND VPWR VPWR sky130_fd_sc_hd__decap_12
XFILLER_74_117 VGND VGND VPWR VPWR sky130_fd_sc_hd__decap_12
XFILLER_74_27 VGND VGND VPWR VPWR sky130_fd_sc_hd__fill_1
XFILLER_90_15 VGND VGND VPWR VPWR sky130_fd_sc_hd__decap_12
XFILLER_30_209 VGND VGND VPWR VPWR sky130_fd_sc_hd__decap_6
XFILLER_70_389 VGND VGND VPWR VPWR sky130_fd_sc_hd__decap_12
XFILLER_11_478 VGND VGND VPWR VPWR sky130_fd_sc_hd__decap_12
XFILLER_7_449 VGND VGND VPWR VPWR sky130_fd_sc_hd__decap_12
XFILLER_65_117 VGND VGND VPWR VPWR sky130_fd_sc_hd__decap_4
XFILLER_0_24 VGND VGND VPWR VPWR sky130_fd_sc_hd__decap_4
XFILLER_80_109 VGND VGND VPWR VPWR sky130_fd_sc_hd__decap_12
XFILLER_73_172 VGND VGND VPWR VPWR sky130_fd_sc_hd__decap_12
X_1940_ _1943_/A VGND VGND VPWR VPWR _1940_/Y sky130_fd_sc_hd__inv_2
XFILLER_61_389 VGND VGND VPWR VPWR sky130_fd_sc_hd__decap_3
X_1871_ _1875_/A VGND VGND VPWR VPWR _1871_/Y sky130_fd_sc_hd__inv_2
XFILLER_6_471 VGND VGND VPWR VPWR sky130_fd_sc_hd__decap_4
XFILLER_50_3 VGND VGND VPWR VPWR sky130_fd_sc_hd__decap_12
XFILLER_88_209 VGND VGND VPWR VPWR sky130_fd_sc_hd__decap_12
X_2423_ _2561_/CLK _2423_/D _1902_/Y VGND VGND VPWR VPWR _2423_/Q sky130_fd_sc_hd__dfrtp_1
X_2354_ _2354_/A VGND VGND VPWR VPWR _2354_/Y sky130_fd_sc_hd__inv_2
XFILLER_96_253 VGND VGND VPWR VPWR sky130_fd_sc_hd__decap_12
X_1305_ _1293_/X _1288_/X _1304_/Y VGND VGND VPWR VPWR _1305_/Y sky130_fd_sc_hd__o21ai_1
XFILLER_69_489 VGND VGND VPWR VPWR sky130_fd_sc_hd__decap_12
X_2285_ _2285_/A _2285_/B _2438_/Q VGND VGND VPWR VPWR _2285_/Y sky130_fd_sc_hd__nor3b_1
X_1236_ _2247_/A VGND VGND VPWR VPWR _2024_/B sky130_fd_sc_hd__buf_2
X_1167_ _1167_/A _1167_/B VGND VGND VPWR VPWR _1168_/C sky130_fd_sc_hd__nor2_1
XFILLER_64_172 VGND VGND VPWR VPWR sky130_fd_sc_hd__fill_1
XFILLER_12_209 VGND VGND VPWR VPWR sky130_fd_sc_hd__decap_12
XFILLER_40_507 VGND VGND VPWR VPWR sky130_fd_sc_hd__decap_6
XFILLER_52_389 VGND VGND VPWR VPWR sky130_fd_sc_hd__decap_12
XFILLER_20_253 VGND VGND VPWR VPWR sky130_fd_sc_hd__decap_12
XFILLER_60_29 VGND VGND VPWR VPWR sky130_fd_sc_hd__decap_6
XFILLER_20_297 VGND VGND VPWR VPWR sky130_fd_sc_hd__fill_2
XFILLER_4_408 VGND VGND VPWR VPWR sky130_fd_sc_hd__decap_12
XFILLER_69_27 VGND VGND VPWR VPWR sky130_fd_sc_hd__decap_12
XFILLER_79_209 VGND VGND VPWR VPWR sky130_fd_sc_hd__decap_12
XFILLER_85_15 VGND VGND VPWR VPWR sky130_fd_sc_hd__decap_12
XFILLER_47_128 VGND VGND VPWR VPWR sky130_fd_sc_hd__decap_4
XFILLER_18_53 VGND VGND VPWR VPWR sky130_fd_sc_hd__decap_12
XFILLER_28_320 VGND VGND VPWR VPWR sky130_fd_sc_hd__decap_4
XFILLER_28_342 VGND VGND VPWR VPWR sky130_fd_sc_hd__decap_3
XFILLER_55_161 VGND VGND VPWR VPWR sky130_fd_sc_hd__decap_6
XFILLER_62_109 VGND VGND VPWR VPWR sky130_fd_sc_hd__decap_4
XFILLER_18_97 VGND VGND VPWR VPWR sky130_fd_sc_hd__decap_4
XFILLER_70_153 VGND VGND VPWR VPWR sky130_fd_sc_hd__decap_12
XFILLER_34_41 VGND VGND VPWR VPWR sky130_fd_sc_hd__decap_12
XFILLER_70_197 VGND VGND VPWR VPWR sky130_fd_sc_hd__decap_12
XFILLER_34_96 VGND VGND VPWR VPWR sky130_fd_sc_hd__fill_2
XFILLER_7_279 VGND VGND VPWR VPWR sky130_fd_sc_hd__fill_1
XFILLER_3_452 VGND VGND VPWR VPWR sky130_fd_sc_hd__decap_6
XTAP_507 VGND VPWR sky130_fd_sc_hd__tapvpwrvgnd_1
XTAP_518 VGND VPWR sky130_fd_sc_hd__tapvpwrvgnd_1
XTAP_529 VGND VPWR sky130_fd_sc_hd__tapvpwrvgnd_1
XFILLER_78_253 VGND VGND VPWR VPWR sky130_fd_sc_hd__decap_12
XFILLER_93_223 VGND VGND VPWR VPWR sky130_fd_sc_hd__fill_1
X_2070_ _2519_/Q VGND VGND VPWR VPWR _2070_/Y sky130_fd_sc_hd__inv_2
XFILLER_19_320 VGND VGND VPWR VPWR sky130_fd_sc_hd__decap_12
XFILLER_38_139 VGND VGND VPWR VPWR sky130_fd_sc_hd__fill_1
XFILLER_81_429 VGND VGND VPWR VPWR sky130_fd_sc_hd__decap_12
XFILLER_75_81 VGND VGND VPWR VPWR sky130_fd_sc_hd__decap_12
XFILLER_19_375 VGND VGND VPWR VPWR sky130_fd_sc_hd__decap_12
X_1923_ _1925_/A VGND VGND VPWR VPWR _1923_/Y sky130_fd_sc_hd__inv_2
X_1854_ _1856_/A VGND VGND VPWR VPWR _1854_/Y sky130_fd_sc_hd__inv_2
X_1785_ _2589_/Q _2586_/Q _1784_/B VGND VGND VPWR VPWR _2589_/D sky130_fd_sc_hd__a21o_1
XFILLER_89_529 VGND VGND VPWR VPWR sky130_fd_sc_hd__decap_12
X_2406_ _2406_/CLK _2406_/D _1880_/Y VGND VGND VPWR VPWR _2406_/Q sky130_fd_sc_hd__dfrtp_4
X_2337_ _2355_/A VGND VGND VPWR VPWR _2342_/A sky130_fd_sc_hd__clkbuf_4
XFILLER_84_245 VGND VGND VPWR VPWR sky130_fd_sc_hd__decap_6
X_2268_ _2264_/Y _2266_/Y _2267_/X VGND VGND VPWR VPWR _2268_/Y sky130_fd_sc_hd__o21ai_2
XFILLER_57_437 VGND VGND VPWR VPWR sky130_fd_sc_hd__decap_8
XFILLER_84_289 VGND VGND VPWR VPWR sky130_fd_sc_hd__decap_12
XFILLER_72_418 VGND VGND VPWR VPWR sky130_fd_sc_hd__fill_2
X_1219_ _1297_/A VGND VGND VPWR VPWR _1219_/X sky130_fd_sc_hd__clkbuf_2
XFILLER_37_150 VGND VGND VPWR VPWR sky130_fd_sc_hd__decap_12
X_2199_ _2500_/Q _2198_/X _2165_/X _2189_/X VGND VGND VPWR VPWR _2199_/X sky130_fd_sc_hd__o31a_1
XFILLER_65_481 VGND VGND VPWR VPWR sky130_fd_sc_hd__decap_3
XFILLER_25_345 VGND VGND VPWR VPWR sky130_fd_sc_hd__fill_1
XFILLER_52_120 VGND VGND VPWR VPWR sky130_fd_sc_hd__decap_3
XFILLER_13_529 VGND VGND VPWR VPWR sky130_fd_sc_hd__decap_12
XFILLER_52_175 VGND VGND VPWR VPWR sky130_fd_sc_hd__decap_4
XFILLER_71_39 VGND VGND VPWR VPWR sky130_fd_sc_hd__decap_12
XFILLER_4_216 VGND VGND VPWR VPWR sky130_fd_sc_hd__decap_4
XFILLER_20_98 VGND VGND VPWR VPWR sky130_fd_sc_hd__decap_12
XFILLER_96_69 VGND VGND VPWR VPWR sky130_fd_sc_hd__decap_12
XFILLER_0_477 VGND VGND VPWR VPWR sky130_fd_sc_hd__decap_6
XFILLER_31_337 VGND VGND VPWR VPWR sky130_fd_sc_hd__decap_4
XFILLER_8_533 VGND VGND VPWR VPWR sky130_fd_sc_hd__decap_4
Xclkbuf_leaf_14_wb_clk_i clkbuf_2_3_0_wb_clk_i/X VGND VGND VPWR VPWR _2497_/CLK sky130_fd_sc_hd__clkbuf_16
X_1570_ input63/X _2414_/Q _1578_/S VGND VGND VPWR VPWR _1571_/A sky130_fd_sc_hd__mux2_1
XTAP_315 VGND VPWR sky130_fd_sc_hd__tapvpwrvgnd_1
XTAP_304 VGND VPWR sky130_fd_sc_hd__tapvpwrvgnd_1
XFILLER_3_260 VGND VGND VPWR VPWR sky130_fd_sc_hd__decap_6
XTAP_348 VGND VPWR sky130_fd_sc_hd__tapvpwrvgnd_1
XTAP_337 VGND VPWR sky130_fd_sc_hd__tapvpwrvgnd_1
XTAP_326 VGND VPWR sky130_fd_sc_hd__tapvpwrvgnd_1
XFILLER_3_293 VGND VGND VPWR VPWR sky130_fd_sc_hd__decap_12
XTAP_359 VGND VPWR sky130_fd_sc_hd__tapvpwrvgnd_1
XFILLER_13_3 VGND VGND VPWR VPWR sky130_fd_sc_hd__decap_12
X_2122_ _2165_/A VGND VGND VPWR VPWR _2122_/X sky130_fd_sc_hd__dlymetal6s2s_1
XFILLER_39_437 VGND VGND VPWR VPWR sky130_fd_sc_hd__fill_1
XFILLER_19_150 VGND VGND VPWR VPWR sky130_fd_sc_hd__decap_12
XFILLER_26_109 VGND VGND VPWR VPWR sky130_fd_sc_hd__decap_4
XFILLER_54_407 VGND VGND VPWR VPWR sky130_fd_sc_hd__decap_12
XFILLER_66_256 VGND VGND VPWR VPWR sky130_fd_sc_hd__decap_12
X_2053_ _2083_/A _2061_/B _2411_/Q VGND VGND VPWR VPWR _2053_/Y sky130_fd_sc_hd__nor3b_1
XFILLER_47_481 VGND VGND VPWR VPWR sky130_fd_sc_hd__decap_8
XFILLER_34_197 VGND VGND VPWR VPWR sky130_fd_sc_hd__decap_12
X_1906_ _1906_/A VGND VGND VPWR VPWR _1906_/Y sky130_fd_sc_hd__inv_2
X_1837_ _1838_/A VGND VGND VPWR VPWR _1837_/Y sky130_fd_sc_hd__inv_2
X_1768_ _2585_/Q _2582_/Q VGND VGND VPWR VPWR _1768_/Y sky130_fd_sc_hd__nor2_1
XFILLER_89_337 VGND VGND VPWR VPWR sky130_fd_sc_hd__decap_12
X_1699_ _1696_/X _1697_/Y _1706_/C _2414_/Q VGND VGND VPWR VPWR _1700_/B sky130_fd_sc_hd__and4bb_1
XTAP_871 VGND VPWR sky130_fd_sc_hd__tapvpwrvgnd_1
XTAP_860 VGND VPWR sky130_fd_sc_hd__tapvpwrvgnd_1
XTAP_893 VGND VPWR sky130_fd_sc_hd__tapvpwrvgnd_1
XTAP_882 VGND VPWR sky130_fd_sc_hd__tapvpwrvgnd_1
XFILLER_57_212 VGND VGND VPWR VPWR sky130_fd_sc_hd__decap_12
XFILLER_72_215 VGND VGND VPWR VPWR sky130_fd_sc_hd__decap_8
XFILLER_38_492 VGND VGND VPWR VPWR sky130_fd_sc_hd__decap_12
XFILLER_82_27 VGND VGND VPWR VPWR sky130_fd_sc_hd__fill_1
XFILLER_53_484 VGND VGND VPWR VPWR sky130_fd_sc_hd__decap_4
XFILLER_15_54 VGND VGND VPWR VPWR sky130_fd_sc_hd__fill_2
XFILLER_13_337 VGND VGND VPWR VPWR sky130_fd_sc_hd__decap_4
XFILLER_5_547 VGND VGND VPWR VPWR sky130_fd_sc_hd__decap_6
XFILLER_31_75 VGND VGND VPWR VPWR sky130_fd_sc_hd__decap_12
Xoutput75 _2528_/Q VGND VGND VPWR VPWR wbs_dat_o[14] sky130_fd_sc_hd__buf_2
XFILLER_95_329 VGND VGND VPWR VPWR sky130_fd_sc_hd__decap_6
Xoutput97 _2519_/Q VGND VGND VPWR VPWR wbs_dat_o[5] sky130_fd_sc_hd__buf_2
Xoutput86 _2538_/Q VGND VGND VPWR VPWR wbs_dat_o[24] sky130_fd_sc_hd__buf_2
XFILLER_0_285 VGND VGND VPWR VPWR sky130_fd_sc_hd__decap_6
XFILLER_48_245 VGND VGND VPWR VPWR sky130_fd_sc_hd__decap_6
XFILLER_56_61 VGND VGND VPWR VPWR sky130_fd_sc_hd__decap_8
XFILLER_56_83 VGND VGND VPWR VPWR sky130_fd_sc_hd__fill_1
XFILLER_16_153 VGND VGND VPWR VPWR sky130_fd_sc_hd__fill_2
XFILLER_16_175 VGND VGND VPWR VPWR sky130_fd_sc_hd__decap_8
XFILLER_71_281 VGND VGND VPWR VPWR sky130_fd_sc_hd__decap_12
XFILLER_71_270 VGND VGND VPWR VPWR sky130_fd_sc_hd__decap_8
XFILLER_31_123 VGND VGND VPWR VPWR sky130_fd_sc_hd__fill_1
XPHY_170 VGND VGND VPWR VPWR sky130_fd_sc_hd__decap_3
XPHY_192 VGND VGND VPWR VPWR sky130_fd_sc_hd__decap_3
XPHY_181 VGND VGND VPWR VPWR sky130_fd_sc_hd__decap_3
XFILLER_8_374 VGND VGND VPWR VPWR sky130_fd_sc_hd__decap_4
X_1622_ _1622_/A _1622_/B VGND VGND VPWR VPWR _2370_/D sky130_fd_sc_hd__nor2_1
X_1553_ _1553_/A VGND VGND VPWR VPWR _2422_/D sky130_fd_sc_hd__clkbuf_1
X_1484_ _2461_/Q _2462_/Q _1484_/S VGND VGND VPWR VPWR _1485_/A sky130_fd_sc_hd__mux2_1
XFILLER_86_307 VGND VGND VPWR VPWR sky130_fd_sc_hd__fill_1
XFILLER_39_223 VGND VGND VPWR VPWR sky130_fd_sc_hd__fill_1
XFILLER_39_267 VGND VGND VPWR VPWR sky130_fd_sc_hd__decap_12
XFILLER_82_513 VGND VGND VPWR VPWR sky130_fd_sc_hd__decap_12
X_2105_ _2523_/Q VGND VGND VPWR VPWR _2105_/Y sky130_fd_sc_hd__inv_2
XFILLER_82_557 VGND VGND VPWR VPWR sky130_fd_sc_hd__decap_12
X_2036_ _2515_/Q VGND VGND VPWR VPWR _2036_/Y sky130_fd_sc_hd__inv_2
XFILLER_50_421 VGND VGND VPWR VPWR sky130_fd_sc_hd__decap_12
XFILLER_10_307 VGND VGND VPWR VPWR sky130_fd_sc_hd__fill_1
XFILLER_2_528 VGND VGND VPWR VPWR sky130_fd_sc_hd__decap_4
XFILLER_77_27 VGND VGND VPWR VPWR sky130_fd_sc_hd__decap_12
XFILLER_89_167 VGND VGND VPWR VPWR sky130_fd_sc_hd__fill_1
XFILLER_77_329 VGND VGND VPWR VPWR sky130_fd_sc_hd__decap_6
XFILLER_58_543 VGND VGND VPWR VPWR sky130_fd_sc_hd__decap_4
XFILLER_93_15 VGND VGND VPWR VPWR sky130_fd_sc_hd__decap_12
XFILLER_85_340 VGND VGND VPWR VPWR sky130_fd_sc_hd__decap_12
XTAP_690 VGND VPWR sky130_fd_sc_hd__tapvpwrvgnd_1
XFILLER_26_20 VGND VGND VPWR VPWR sky130_fd_sc_hd__decap_8
XFILLER_26_53 VGND VGND VPWR VPWR sky130_fd_sc_hd__decap_8
XFILLER_26_97 VGND VGND VPWR VPWR sky130_fd_sc_hd__decap_12
XFILLER_13_167 VGND VGND VPWR VPWR sky130_fd_sc_hd__fill_1
XFILLER_13_178 VGND VGND VPWR VPWR sky130_fd_sc_hd__decap_12
XFILLER_42_85 VGND VGND VPWR VPWR sky130_fd_sc_hd__decap_8
XFILLER_5_355 VGND VGND VPWR VPWR sky130_fd_sc_hd__decap_12
XFILLER_5_333 VGND VGND VPWR VPWR sky130_fd_sc_hd__decap_3
XFILLER_1_550 VGND VGND VPWR VPWR sky130_fd_sc_hd__fill_1
XFILLER_1_561 VGND VGND VPWR VPWR sky130_fd_sc_hd__decap_4
XFILLER_95_137 VGND VGND VPWR VPWR sky130_fd_sc_hd__decap_12
XFILLER_3_57 VGND VGND VPWR VPWR sky130_fd_sc_hd__decap_3
XFILLER_64_524 VGND VGND VPWR VPWR sky130_fd_sc_hd__decap_8
XFILLER_83_81 VGND VGND VPWR VPWR sky130_fd_sc_hd__decap_12
XFILLER_32_421 VGND VGND VPWR VPWR sky130_fd_sc_hd__decap_12
XFILLER_80_3 VGND VGND VPWR VPWR sky130_fd_sc_hd__decap_12
X_1605_ _1586_/B _1606_/C _1604_/Y VGND VGND VPWR VPWR _2444_/D sky130_fd_sc_hd__a21oi_1
X_2585_ _2589_/CLK _2585_/D _2348_/Y VGND VGND VPWR VPWR _2585_/Q sky130_fd_sc_hd__dfrtp_1
X_1536_ _1558_/A VGND VGND VPWR VPWR _1545_/S sky130_fd_sc_hd__clkbuf_2
XFILLER_59_318 VGND VGND VPWR VPWR sky130_fd_sc_hd__decap_4
X_1467_ _2469_/Q _2470_/Q _1473_/S VGND VGND VPWR VPWR _1468_/A sky130_fd_sc_hd__mux2_1
X_1398_ _2500_/Q _2501_/Q _1406_/S VGND VGND VPWR VPWR _1399_/A sky130_fd_sc_hd__mux2_1
XFILLER_67_384 VGND VGND VPWR VPWR sky130_fd_sc_hd__fill_1
XFILLER_82_343 VGND VGND VPWR VPWR sky130_fd_sc_hd__decap_8
XTAP_1119 VGND VPWR sky130_fd_sc_hd__tapvpwrvgnd_1
XTAP_1108 VGND VPWR sky130_fd_sc_hd__tapvpwrvgnd_1
XFILLER_82_365 VGND VGND VPWR VPWR sky130_fd_sc_hd__decap_12
XFILLER_35_281 VGND VGND VPWR VPWR sky130_fd_sc_hd__decap_4
X_2019_ _2026_/A _2252_/A VGND VGND VPWR VPWR _2231_/A sky130_fd_sc_hd__nand2_2
XFILLER_23_476 VGND VGND VPWR VPWR sky130_fd_sc_hd__decap_12
XFILLER_50_262 VGND VGND VPWR VPWR sky130_fd_sc_hd__decap_12
XFILLER_10_126 VGND VGND VPWR VPWR sky130_fd_sc_hd__fill_1
XFILLER_6_119 VGND VGND VPWR VPWR sky130_fd_sc_hd__decap_12
XFILLER_12_77 VGND VGND VPWR VPWR sky130_fd_sc_hd__decap_6
XFILLER_88_15 VGND VGND VPWR VPWR sky130_fd_sc_hd__decap_12
XFILLER_2_325 VGND VGND VPWR VPWR sky130_fd_sc_hd__decap_6
XFILLER_2_347 VGND VGND VPWR VPWR sky130_fd_sc_hd__decap_8
XFILLER_77_137 VGND VGND VPWR VPWR sky130_fd_sc_hd__decap_12
XFILLER_58_362 VGND VGND VPWR VPWR sky130_fd_sc_hd__fill_2
XFILLER_85_181 VGND VGND VPWR VPWR sky130_fd_sc_hd__decap_12
XFILLER_73_332 VGND VGND VPWR VPWR sky130_fd_sc_hd__decap_4
XFILLER_61_505 VGND VGND VPWR VPWR sky130_fd_sc_hd__decap_12
XFILLER_53_51 VGND VGND VPWR VPWR sky130_fd_sc_hd__decap_4
X_2370_ _2601_/CLK _2370_/D _1836_/Y VGND VGND VPWR VPWR _2370_/Q sky130_fd_sc_hd__dfrtp_1
X_1321_ _2555_/Q VGND VGND VPWR VPWR _1321_/Y sky130_fd_sc_hd__inv_2
X_1252_ _1374_/A VGND VGND VPWR VPWR _1252_/X sky130_fd_sc_hd__clkbuf_1
XFILLER_49_384 VGND VGND VPWR VPWR sky130_fd_sc_hd__fill_1
X_1183_ _1183_/A input9/X VGND VGND VPWR VPWR _1187_/A sky130_fd_sc_hd__nor2_1
XFILLER_37_535 VGND VGND VPWR VPWR sky130_fd_sc_hd__decap_6
XFILLER_64_321 VGND VGND VPWR VPWR sky130_fd_sc_hd__decap_12
XFILLER_64_365 VGND VGND VPWR VPWR sky130_fd_sc_hd__decap_12
XFILLER_20_402 VGND VGND VPWR VPWR sky130_fd_sc_hd__decap_6
X_2568_ _2568_/CLK _2568_/D _2327_/Y VGND VGND VPWR VPWR _2568_/Q sky130_fd_sc_hd__dfrtp_1
XFILLER_58_29 VGND VGND VPWR VPWR sky130_fd_sc_hd__decap_12
X_1519_ input56/X _2437_/Q _1523_/S VGND VGND VPWR VPWR _1520_/A sky130_fd_sc_hd__mux2_1
X_2499_ _2503_/CLK _2499_/D _1996_/Y VGND VGND VPWR VPWR _2499_/Q sky130_fd_sc_hd__dfrtp_1
XFILLER_59_137 VGND VGND VPWR VPWR sky130_fd_sc_hd__decap_8
XFILLER_55_321 VGND VGND VPWR VPWR sky130_fd_sc_hd__decap_4
XFILLER_67_181 VGND VGND VPWR VPWR sky130_fd_sc_hd__decap_12
XFILLER_15_207 VGND VGND VPWR VPWR sky130_fd_sc_hd__fill_1
XFILLER_43_505 VGND VGND VPWR VPWR sky130_fd_sc_hd__decap_8
XFILLER_82_195 VGND VGND VPWR VPWR sky130_fd_sc_hd__fill_1
XFILLER_70_335 VGND VGND VPWR VPWR sky130_fd_sc_hd__decap_12
XFILLER_90_27 VGND VGND VPWR VPWR sky130_fd_sc_hd__fill_1
XFILLER_23_262 VGND VGND VPWR VPWR sky130_fd_sc_hd__decap_12
XFILLER_23_284 VGND VGND VPWR VPWR sky130_fd_sc_hd__decap_8
XFILLER_7_417 VGND VGND VPWR VPWR sky130_fd_sc_hd__decap_12
XFILLER_23_65 VGND VGND VPWR VPWR sky130_fd_sc_hd__fill_1
XFILLER_2_133 VGND VGND VPWR VPWR sky130_fd_sc_hd__decap_6
XFILLER_78_424 VGND VGND VPWR VPWR sky130_fd_sc_hd__decap_4
XFILLER_93_405 VGND VGND VPWR VPWR sky130_fd_sc_hd__decap_12