*SPEF "ieee 1481-1999"
*DESIGN "SPM_example"
*DATE "11:11:11 Fri 11 11, 1111"
*VENDOR "OpenRCX"
*PROGRAM "Parallel Extraction"
*VERSION "1.0"
*DESIGN_FLOW "NAME_SCOPE LOCAL" "PIN_CAP NONE"
*DIVIDER /
*DELIMITER :
*BUS_DELIMITER []
*T_UNIT 1 NS
*C_UNIT 1 PF
*R_UNIT 1 OHM
*L_UNIT 1 HENRY

*NAME_MAP
*3 wb_clk_i
*4 wb_rst_i
*5 wbs_ack_o
*6 wbs_adr_i[0]
*7 wbs_adr_i[10]
*8 wbs_adr_i[11]
*9 wbs_adr_i[12]
*10 wbs_adr_i[13]
*11 wbs_adr_i[14]
*12 wbs_adr_i[15]
*13 wbs_adr_i[16]
*14 wbs_adr_i[17]
*15 wbs_adr_i[18]
*16 wbs_adr_i[19]
*17 wbs_adr_i[1]
*18 wbs_adr_i[20]
*19 wbs_adr_i[21]
*20 wbs_adr_i[22]
*21 wbs_adr_i[23]
*22 wbs_adr_i[24]
*23 wbs_adr_i[25]
*24 wbs_adr_i[26]
*25 wbs_adr_i[27]
*26 wbs_adr_i[28]
*27 wbs_adr_i[29]
*28 wbs_adr_i[2]
*29 wbs_adr_i[30]
*30 wbs_adr_i[31]
*31 wbs_adr_i[3]
*32 wbs_adr_i[4]
*33 wbs_adr_i[5]
*34 wbs_adr_i[6]
*35 wbs_adr_i[7]
*36 wbs_adr_i[8]
*37 wbs_adr_i[9]
*38 wbs_cyc_i
*39 wbs_dat_i[0]
*40 wbs_dat_i[10]
*41 wbs_dat_i[11]
*42 wbs_dat_i[12]
*43 wbs_dat_i[13]
*44 wbs_dat_i[14]
*45 wbs_dat_i[15]
*46 wbs_dat_i[16]
*47 wbs_dat_i[17]
*48 wbs_dat_i[18]
*49 wbs_dat_i[19]
*50 wbs_dat_i[1]
*51 wbs_dat_i[20]
*52 wbs_dat_i[21]
*53 wbs_dat_i[22]
*54 wbs_dat_i[23]
*55 wbs_dat_i[24]
*56 wbs_dat_i[25]
*57 wbs_dat_i[26]
*58 wbs_dat_i[27]
*59 wbs_dat_i[28]
*60 wbs_dat_i[29]
*61 wbs_dat_i[2]
*62 wbs_dat_i[30]
*63 wbs_dat_i[31]
*64 wbs_dat_i[3]
*65 wbs_dat_i[4]
*66 wbs_dat_i[5]
*67 wbs_dat_i[6]
*68 wbs_dat_i[7]
*69 wbs_dat_i[8]
*70 wbs_dat_i[9]
*71 wbs_dat_o[0]
*72 wbs_dat_o[10]
*73 wbs_dat_o[11]
*74 wbs_dat_o[12]
*75 wbs_dat_o[13]
*76 wbs_dat_o[14]
*77 wbs_dat_o[15]
*78 wbs_dat_o[16]
*79 wbs_dat_o[17]
*80 wbs_dat_o[18]
*81 wbs_dat_o[19]
*82 wbs_dat_o[1]
*83 wbs_dat_o[20]
*84 wbs_dat_o[21]
*85 wbs_dat_o[22]
*86 wbs_dat_o[23]
*87 wbs_dat_o[24]
*88 wbs_dat_o[25]
*89 wbs_dat_o[26]
*90 wbs_dat_o[27]
*91 wbs_dat_o[28]
*92 wbs_dat_o[29]
*93 wbs_dat_o[2]
*94 wbs_dat_o[30]
*95 wbs_dat_o[31]
*96 wbs_dat_o[3]
*97 wbs_dat_o[4]
*98 wbs_dat_o[5]
*99 wbs_dat_o[6]
*100 wbs_dat_o[7]
*101 wbs_dat_o[8]
*102 wbs_dat_o[9]
*103 wbs_sel_i[0]
*104 wbs_sel_i[1]
*105 wbs_sel_i[2]
*106 wbs_sel_i[3]
*107 wbs_stb_i
*108 wbs_we_i
*109 CNT\[0\]
*110 CNT\[1\]
*111 CNT\[2\]
*112 CNT\[3\]
*113 CNT\[4\]
*114 CNT\[5\]
*115 CNT\[6\]
*116 CNT\[7\]
*117 P0\[0\]
*118 P0\[10\]
*119 P0\[11\]
*120 P0\[12\]
*121 P0\[13\]
*122 P0\[14\]
*123 P0\[15\]
*124 P0\[16\]
*125 P0\[17\]
*126 P0\[18\]
*127 P0\[19\]
*128 P0\[1\]
*129 P0\[20\]
*130 P0\[21\]
*131 P0\[22\]
*132 P0\[23\]
*133 P0\[24\]
*134 P0\[25\]
*135 P0\[26\]
*136 P0\[27\]
*137 P0\[28\]
*138 P0\[29\]
*139 P0\[2\]
*140 P0\[30\]
*141 P0\[31\]
*142 P0\[32\]
*143 P0\[33\]
*144 P0\[34\]
*145 P0\[35\]
*146 P0\[36\]
*147 P0\[37\]
*148 P0\[38\]
*149 P0\[39\]
*150 P0\[3\]
*151 P0\[40\]
*152 P0\[41\]
*153 P0\[42\]
*154 P0\[43\]
*155 P0\[44\]
*156 P0\[45\]
*157 P0\[46\]
*158 P0\[47\]
*159 P0\[48\]
*160 P0\[49\]
*161 P0\[4\]
*162 P0\[50\]
*163 P0\[51\]
*164 P0\[52\]
*165 P0\[53\]
*166 P0\[54\]
*167 P0\[55\]
*168 P0\[56\]
*169 P0\[57\]
*170 P0\[58\]
*171 P0\[59\]
*172 P0\[5\]
*173 P0\[60\]
*174 P0\[61\]
*175 P0\[62\]
*176 P0\[63\]
*177 P0\[6\]
*178 P0\[7\]
*179 P0\[8\]
*180 P0\[9\]
*181 STATE
*182 Y\[10\]
*183 Y\[11\]
*184 Y\[12\]
*185 Y\[13\]
*186 Y\[14\]
*187 Y\[15\]
*188 Y\[16\]
*189 Y\[17\]
*190 Y\[18\]
*191 Y\[19\]
*192 Y\[1\]
*193 Y\[20\]
*194 Y\[21\]
*195 Y\[22\]
*196 Y\[23\]
*197 Y\[24\]
*198 Y\[25\]
*199 Y\[26\]
*200 Y\[27\]
*201 Y\[28\]
*202 Y\[29\]
*203 Y\[2\]
*204 Y\[30\]
*205 Y\[31\]
*206 Y\[3\]
*207 Y\[4\]
*208 Y\[5\]
*209 Y\[6\]
*210 Y\[7\]
*211 Y\[8\]
*212 Y\[9\]
*213 _0000_
*214 _0001_
*215 _0002_
*216 _0003_
*217 _0004_
*218 _0005_
*219 _0006_
*220 _0007_
*221 _0008_
*222 _0009_
*223 _0010_
*224 _0011_
*225 _0012_
*226 _0013_
*227 _0014_
*228 _0015_
*229 _0016_
*230 _0017_
*231 _0018_
*232 _0019_
*233 _0020_
*234 _0021_
*235 _0022_
*236 _0023_
*237 _0024_
*238 _0025_
*239 _0026_
*240 _0027_
*241 _0028_
*242 _0029_
*243 _0030_
*244 _0031_
*245 _0032_
*246 _0033_
*247 _0034_
*248 _0035_
*249 _0036_
*250 _0037_
*251 _0038_
*252 _0039_
*253 _0040_
*254 _0041_
*255 _0042_
*256 _0043_
*257 _0044_
*258 _0045_
*259 _0046_
*260 _0047_
*261 _0048_
*262 _0049_
*263 _0050_
*264 _0051_
*265 _0052_
*266 _0053_
*267 _0054_
*268 _0055_
*269 _0056_
*270 _0057_
*271 _0058_
*272 _0059_
*273 _0060_
*274 _0061_
*275 _0062_
*276 _0063_
*277 _0064_
*278 _0065_
*279 _0066_
*280 _0067_
*281 _0068_
*282 _0069_
*283 _0070_
*284 _0071_
*285 _0072_
*286 _0073_
*287 _0074_
*288 _0075_
*289 _0076_
*290 _0077_
*291 _0078_
*292 _0079_
*293 _0080_
*294 _0081_
*295 _0082_
*296 _0083_
*297 _0084_
*298 _0085_
*299 _0086_
*300 _0087_
*301 _0088_
*302 _0089_
*303 _0090_
*304 _0091_
*305 _0092_
*306 _0093_
*307 _0094_
*308 _0095_
*309 _0096_
*310 _0097_
*311 _0098_
*312 _0099_
*313 _0100_
*314 _0101_
*315 _0102_
*316 _0103_
*317 _0104_
*318 _0105_
*319 _0106_
*320 _0107_
*321 _0108_
*322 _0109_
*323 _0110_
*324 _0111_
*325 _0112_
*326 _0113_
*327 _0114_
*328 _0115_
*329 _0116_
*330 _0117_
*331 _0118_
*332 _0119_
*333 _0120_
*334 _0121_
*335 _0122_
*336 _0123_
*337 _0124_
*338 _0125_
*339 _0126_
*340 _0127_
*341 _0128_
*342 _0129_
*343 _0130_
*344 _0131_
*345 _0132_
*346 _0133_
*347 _0134_
*348 _0135_
*349 _0136_
*350 _0137_
*351 _0138_
*352 _0139_
*353 _0140_
*354 _0141_
*355 _0142_
*356 _0143_
*357 _0144_
*358 _0145_
*359 _0146_
*360 _0147_
*361 _0148_
*362 _0149_
*363 _0150_
*364 _0151_
*365 _0152_
*366 _0153_
*367 _0154_
*368 _0155_
*369 _0156_
*370 _0157_
*371 _0158_
*372 _0159_
*373 _0160_
*374 _0161_
*375 _0162_
*376 _0163_
*377 _0164_
*378 _0165_
*379 _0166_
*380 _0167_
*381 _0168_
*382 _0169_
*383 _0170_
*384 _0171_
*385 _0172_
*386 _0173_
*387 _0174_
*388 _0175_
*389 _0176_
*390 _0177_
*391 _0178_
*392 _0179_
*393 _0180_
*394 _0181_
*395 _0182_
*396 _0183_
*397 _0184_
*398 _0185_
*399 _0186_
*400 _0187_
*401 _0188_
*402 _0189_
*403 _0190_
*404 _0191_
*405 _0192_
*406 _0193_
*407 _0194_
*408 _0195_
*409 _0196_
*410 _0197_
*411 _0198_
*412 _0199_
*413 _0200_
*414 _0201_
*415 _0202_
*416 _0203_
*417 _0204_
*418 _0205_
*419 _0206_
*420 _0207_
*421 _0208_
*422 _0209_
*423 _0210_
*424 _0211_
*425 _0212_
*426 _0213_
*427 _0214_
*428 _0215_
*429 _0216_
*430 _0217_
*431 _0218_
*432 _0219_
*433 _0220_
*434 _0221_
*435 _0222_
*436 _0223_
*437 _0224_
*438 _0225_
*439 _0226_
*440 _0227_
*441 _0228_
*442 _0229_
*443 _0230_
*444 _0231_
*445 _0232_
*446 _0233_
*447 _0234_
*448 _0235_
*449 _0236_
*450 _0237_
*451 _0238_
*452 _0239_
*453 _0240_
*454 _0241_
*455 _0242_
*456 _0243_
*457 _0244_
*458 _0245_
*459 _0246_
*460 _0247_
*461 _0248_
*462 _0249_
*463 _0250_
*464 _0251_
*465 _0252_
*466 _0253_
*467 _0254_
*468 _0255_
*469 _0256_
*470 _0257_
*471 _0258_
*472 _0259_
*473 _0260_
*474 _0261_
*475 _0262_
*476 _0263_
*477 _0264_
*478 _0265_
*479 _0266_
*480 _0267_
*481 _0268_
*482 _0269_
*483 _0270_
*484 _0271_
*485 _0272_
*486 _0273_
*487 _0274_
*488 _0275_
*489 _0276_
*490 _0277_
*491 _0278_
*492 _0279_
*493 _0280_
*494 _0281_
*495 _0282_
*496 _0283_
*497 _0284_
*498 _0285_
*499 _0286_
*500 _0287_
*501 _0288_
*502 _0289_
*503 _0290_
*504 _0291_
*505 _0292_
*506 _0293_
*507 _0294_
*508 _0295_
*509 _0296_
*510 _0297_
*511 _0298_
*512 _0299_
*513 _0300_
*514 _0301_
*515 _0302_
*516 _0303_
*517 _0304_
*518 _0305_
*519 _0306_
*520 _0307_
*521 _0308_
*522 _0309_
*523 _0310_
*524 _0311_
*525 _0312_
*526 _0313_
*527 _0314_
*528 _0315_
*529 _0316_
*530 _0317_
*531 _0318_
*532 _0319_
*533 _0320_
*534 _0321_
*535 _0322_
*536 _0323_
*537 _0324_
*538 _0325_
*539 _0326_
*540 _0327_
*541 _0328_
*542 _0329_
*543 _0330_
*544 _0331_
*545 _0332_
*546 _0333_
*547 _0334_
*548 _0335_
*549 _0336_
*550 _0337_
*551 _0338_
*552 _0339_
*553 _0340_
*554 _0341_
*555 _0342_
*556 _0343_
*557 _0344_
*558 _0345_
*559 _0346_
*560 _0347_
*561 _0348_
*562 _0349_
*563 _0350_
*564 _0351_
*565 _0352_
*566 _0353_
*567 _0354_
*568 _0355_
*569 _0356_
*570 _0357_
*571 _0358_
*572 _0359_
*573 _0360_
*574 _0361_
*575 _0362_
*576 _0363_
*577 _0364_
*578 _0365_
*579 _0366_
*580 _0367_
*581 _0368_
*582 _0369_
*583 _0370_
*584 _0371_
*585 _0372_
*586 _0373_
*587 _0374_
*588 _0375_
*589 _0376_
*590 _0377_
*591 _0378_
*592 _0379_
*593 _0380_
*594 _0381_
*595 _0382_
*596 _0383_
*597 _0384_
*598 _0385_
*599 _0386_
*600 _0387_
*601 _0388_
*602 _0389_
*603 _0390_
*604 _0391_
*605 _0392_
*606 _0393_
*607 _0394_
*608 _0395_
*609 _0396_
*610 _0397_
*611 _0398_
*612 _0399_
*613 _0400_
*614 _0401_
*615 _0402_
*616 _0403_
*617 _0404_
*618 _0405_
*619 _0406_
*620 _0407_
*621 _0408_
*622 _0409_
*623 _0410_
*624 _0411_
*625 _0412_
*626 _0413_
*627 _0414_
*628 _0415_
*629 _0416_
*630 _0417_
*631 _0418_
*632 _0419_
*633 _0420_
*634 _0421_
*635 _0422_
*636 _0423_
*637 _0424_
*638 _0425_
*639 _0426_
*640 _0427_
*641 _0428_
*642 _0429_
*643 _0430_
*644 _0431_
*645 _0432_
*646 _0433_
*647 _0434_
*648 _0435_
*649 _0436_
*650 _0437_
*651 _0438_
*652 _0439_
*653 _0440_
*654 _0441_
*655 _0442_
*656 _0443_
*657 _0444_
*658 _0445_
*659 _0446_
*660 _0447_
*661 _0448_
*662 _0449_
*663 _0450_
*664 _0451_
*665 _0452_
*666 _0453_
*667 _0454_
*668 _0455_
*669 _0456_
*670 _0457_
*671 _0458_
*672 _0459_
*673 _0460_
*674 _0461_
*675 _0462_
*676 _0463_
*677 _0464_
*678 _0465_
*679 _0466_
*680 _0467_
*681 _0468_
*682 _0469_
*683 _0470_
*684 _0471_
*685 _0472_
*686 _0473_
*687 _0474_
*688 _0475_
*689 _0476_
*690 _0477_
*691 _0478_
*692 _0479_
*693 _0480_
*694 _0481_
*695 _0482_
*696 _0483_
*697 _0484_
*698 _0485_
*699 _0486_
*700 _0487_
*701 _0488_
*702 _0489_
*703 _0490_
*704 _0491_
*705 _0492_
*706 _0493_
*707 _0494_
*708 _0495_
*709 _0496_
*710 _0497_
*711 _0498_
*712 _0499_
*713 _0500_
*714 _0501_
*715 _0502_
*716 _0503_
*717 _0504_
*718 _0505_
*719 _0506_
*720 _0507_
*721 _0508_
*722 _0509_
*723 _0510_
*724 _0511_
*725 _0512_
*726 _0513_
*727 _0514_
*728 _0515_
*729 _0516_
*730 _0517_
*731 _0518_
*732 _0519_
*733 _0520_
*734 _0521_
*735 _0522_
*736 _0523_
*737 _0524_
*738 _0525_
*739 _0526_
*740 _0527_
*741 _0528_
*742 _0529_
*743 _0530_
*744 _0531_
*745 _0532_
*746 _0533_
*747 _0534_
*748 _0535_
*749 _0536_
*750 _0537_
*751 _0538_
*752 _0539_
*753 _0540_
*754 _0541_
*755 _0542_
*756 _0543_
*757 _0544_
*758 _0545_
*759 _0546_
*760 _0547_
*761 _0548_
*762 _0549_
*763 _0550_
*764 _0551_
*765 _0552_
*766 _0553_
*767 _0554_
*768 _0555_
*769 _0556_
*770 _0557_
*771 _0558_
*772 _0559_
*773 _0560_
*774 _0561_
*775 _0562_
*776 _0563_
*777 _0564_
*778 _0565_
*779 _0566_
*780 _0567_
*781 _0568_
*782 _0569_
*783 _0570_
*784 _0571_
*785 _0572_
*786 _0573_
*787 _0574_
*788 _0575_
*789 _0576_
*790 _0577_
*791 _0578_
*792 _0579_
*793 _0580_
*794 _0581_
*795 _0582_
*796 _0583_
*797 _0584_
*798 _0585_
*799 _0586_
*800 _0587_
*801 _0588_
*802 _0589_
*803 _0590_
*804 _0591_
*805 _0592_
*806 _0593_
*807 _0594_
*808 _0595_
*809 _0596_
*810 _0597_
*811 _0598_
*812 _0599_
*813 _0600_
*814 _0601_
*815 _0602_
*816 _0603_
*817 _0604_
*818 _0605_
*819 _0606_
*820 _0607_
*821 _0608_
*822 _0609_
*823 _0610_
*824 _0611_
*825 _0612_
*826 _0613_
*827 _0614_
*828 _0615_
*829 _0616_
*830 _0617_
*831 _0618_
*832 _0619_
*833 _0620_
*834 _0621_
*835 _0622_
*836 _0623_
*837 _0624_
*838 _0625_
*839 _0626_
*840 _0627_
*841 _0628_
*842 _0629_
*843 _0630_
*844 _0631_
*845 _0632_
*846 _0633_
*847 _0634_
*848 _0635_
*849 _0636_
*850 _0637_
*851 _0638_
*852 _0639_
*853 _0640_
*854 _0641_
*855 _0642_
*856 _0643_
*857 _0644_
*858 _0645_
*859 _0646_
*860 _0647_
*861 _0648_
*862 _0649_
*863 _0650_
*864 _0651_
*865 _0652_
*866 _0653_
*867 _0654_
*868 _0655_
*869 _0656_
*870 _0657_
*871 _0658_
*872 _0659_
*873 _0660_
*874 _0661_
*875 _0662_
*876 _0663_
*877 _0664_
*878 _0665_
*879 _0666_
*880 _0667_
*881 _0668_
*882 _0669_
*883 _0670_
*884 _0671_
*885 _0672_
*886 _0673_
*887 _0674_
*888 _0675_
*889 _0676_
*890 _0677_
*891 _0678_
*892 _0679_
*893 _0680_
*894 _0681_
*895 _0682_
*896 _0683_
*897 _0684_
*898 _0685_
*899 _0686_
*900 _0687_
*901 _0688_
*902 _0689_
*903 _0690_
*904 _0691_
*905 _0692_
*906 _0693_
*907 _0694_
*908 _0695_
*909 _0696_
*910 _0697_
*911 _0698_
*912 _0699_
*913 _0700_
*914 _0701_
*915 _0702_
*916 _0703_
*917 _0704_
*918 _0705_
*919 _0706_
*920 _0707_
*921 _0708_
*922 _0709_
*923 _0710_
*924 _0711_
*925 _0712_
*926 _0713_
*927 _0714_
*928 _0715_
*929 _0716_
*930 _0717_
*931 _0718_
*932 _0719_
*933 _0720_
*934 _0721_
*935 _0722_
*936 _0723_
*937 _0724_
*938 _0725_
*939 _0726_
*940 _0727_
*941 _0728_
*942 _0729_
*943 _0730_
*944 _0731_
*945 _0732_
*946 _0733_
*947 _0734_
*948 _0735_
*949 _0736_
*950 _0737_
*951 _0738_
*952 _0739_
*953 _0740_
*954 _0741_
*955 _0742_
*956 _0743_
*957 _0744_
*958 _0745_
*959 _0746_
*960 _0747_
*961 _0748_
*962 _0749_
*963 _0750_
*964 _0751_
*965 _0752_
*966 _0753_
*967 _0754_
*968 _0755_
*969 _0756_
*970 _0757_
*971 _0758_
*972 _0759_
*973 _0760_
*974 _0761_
*975 _0762_
*976 _0763_
*977 _0764_
*978 _0765_
*979 _0766_
*980 _0767_
*981 _0768_
*982 _0769_
*983 _0770_
*984 _0771_
*985 _0772_
*986 _0773_
*987 _0774_
*988 _0775_
*989 _0776_
*990 _0777_
*991 _0778_
*992 _0779_
*993 _0780_
*994 _0781_
*995 _0782_
*996 _0783_
*997 _0784_
*998 _0785_
*999 _0786_
*1000 _0787_
*1001 _0788_
*1002 _0789_
*1003 _0790_
*1004 _0791_
*1005 _0792_
*1006 _0793_
*1007 _0794_
*1008 _0795_
*1009 _0796_
*1010 _0797_
*1011 _0798_
*1012 _0799_
*1013 _0800_
*1014 _0801_
*1015 _0802_
*1016 _0803_
*1017 _0804_
*1018 _0805_
*1019 _0806_
*1020 _0807_
*1021 _0808_
*1022 _0809_
*1023 _0810_
*1024 _0811_
*1025 _0812_
*1026 _0813_
*1027 _0814_
*1028 _0815_
*1029 _0816_
*1030 _0817_
*1031 _0818_
*1032 _0819_
*1033 _0820_
*1034 _0821_
*1035 _0822_
*1036 _0823_
*1037 _0824_
*1038 _0825_
*1039 _0826_
*1040 _0827_
*1041 _0828_
*1042 _0829_
*1043 _0830_
*1044 _0831_
*1045 _0832_
*1046 _0833_
*1047 _0834_
*1048 _0835_
*1049 _0836_
*1050 _0837_
*1051 _0838_
*1052 _0839_
*1053 _0840_
*1054 _0841_
*1055 _0842_
*1056 _0843_
*1057 _0844_
*1058 _0845_
*1059 _0846_
*1060 _0847_
*1061 _0848_
*1062 _0849_
*1063 _0850_
*1064 _0851_
*1065 _0852_
*1066 _0853_
*1067 _0854_
*1068 _0855_
*1069 _0856_
*1070 _0857_
*1071 _0858_
*1072 _0859_
*1073 _0860_
*1074 _0861_
*1075 _0862_
*1076 _0863_
*1077 _0864_
*1078 _0865_
*1079 _0866_
*1080 _0867_
*1081 _0868_
*1082 _0869_
*1083 _0870_
*1084 _0871_
*1085 _0872_
*1086 _0873_
*1087 _0874_
*1088 _0875_
*1089 _0876_
*1090 _0877_
*1091 _0878_
*1092 _0879_
*1093 _0880_
*1094 _0881_
*1095 _0882_
*1096 _0883_
*1097 _0884_
*1098 _0885_
*1099 _0886_
*1100 _0887_
*1101 _0888_
*1102 _0889_
*1103 _0890_
*1104 _0891_
*1105 _0892_
*1106 _0893_
*1107 _0894_
*1108 _0895_
*1109 _0896_
*1110 _0897_
*1111 _0898_
*1112 _0899_
*1113 _0900_
*1114 _0901_
*1115 _0902_
*1116 _0903_
*1117 _0904_
*1118 _0905_
*1119 _0906_
*1120 _0907_
*1121 _0908_
*1122 _0909_
*1123 _0910_
*1124 _0911_
*1125 _0912_
*1126 _0913_
*1127 _0914_
*1128 _0915_
*1129 _0916_
*1130 _0917_
*1131 _0918_
*1132 _0919_
*1133 _0920_
*1134 _0921_
*1135 _0922_
*1136 _0923_
*1137 _0924_
*1138 _0925_
*1139 _0926_
*1140 _0927_
*1141 _0928_
*1142 _0929_
*1143 _0930_
*1144 _0931_
*1145 _0932_
*1146 _0933_
*1147 _0934_
*1148 _0935_
*1149 _0936_
*1150 _0937_
*1151 _0938_
*1152 _0939_
*1153 _0940_
*1154 _0941_
*1155 _0942_
*1156 _0943_
*1157 _0944_
*1158 _0945_
*1159 _0946_
*1160 _0947_
*1161 _0948_
*1162 _0949_
*1163 _0950_
*1164 _0951_
*1165 _0952_
*1166 _0953_
*1167 _0954_
*1168 _0955_
*1169 _0956_
*1170 _0957_
*1171 _0958_
*1172 _0959_
*1173 _0960_
*1174 _0961_
*1175 _0962_
*1176 _0963_
*1177 _0964_
*1178 _0965_
*1179 _0966_
*1180 _0967_
*1181 _0968_
*1182 _0969_
*1183 _0970_
*1184 _0971_
*1185 _0972_
*1186 _0973_
*1187 _0974_
*1188 _0975_
*1189 _0976_
*1190 _0977_
*1191 _0978_
*1192 _0979_
*1193 _0980_
*1194 _0981_
*1195 _0982_
*1196 _0983_
*1197 _0984_
*1198 _0985_
*1199 _0986_
*1200 _0987_
*1201 _0988_
*1202 _0989_
*1203 _0990_
*1204 _0991_
*1205 _0992_
*1206 _0993_
*1207 _0994_
*1208 _0995_
*1209 _0996_
*1210 _0997_
*1211 _0998_
*1212 _0999_
*1213 _1000_
*1214 _1001_
*1215 _1002_
*1216 _1003_
*1217 _1004_
*1218 _1005_
*1219 _1006_
*1220 _1007_
*1221 _1008_
*1222 _1009_
*1223 _1010_
*1224 _1011_
*1225 _1012_
*1226 _1013_
*1227 _1014_
*1228 _1015_
*1229 _1016_
*1230 _1017_
*1231 _1018_
*1232 _1019_
*1233 _1020_
*1234 _1021_
*1235 _1022_
*1236 _1023_
*1237 _1024_
*1238 _1025_
*1239 _1026_
*1240 _1027_
*1241 _1028_
*1242 _1029_
*1243 _1030_
*1244 _1031_
*1245 _1032_
*1246 _1033_
*1247 _1034_
*1248 _1035_
*1249 _1036_
*1250 _1037_
*1251 _1038_
*1252 _1039_
*1253 _1040_
*1254 _1041_
*1255 _1042_
*1256 _1043_
*1257 _1044_
*1258 _1045_
*1259 _1046_
*1260 _1047_
*1261 _1048_
*1262 _1049_
*1263 _1050_
*1264 _1051_
*1265 _1052_
*1266 _1053_
*1267 _1054_
*1268 _1055_
*1269 _1056_
*1270 _1057_
*1271 _1058_
*1272 _1059_
*1273 _1060_
*1274 _1061_
*1275 _1062_
*1276 _1063_
*1277 _1064_
*1278 _1065_
*1279 _1066_
*1280 _1067_
*1281 _1068_
*1282 _1069_
*1283 _1070_
*1284 _1071_
*1285 _1072_
*1286 _1073_
*1287 _1074_
*1288 _1075_
*1289 _1076_
*1290 _1077_
*1291 _1078_
*1292 _1079_
*1293 _1080_
*1294 _1081_
*1295 _1082_
*1296 _1083_
*1297 _1084_
*1298 _1085_
*1299 _1086_
*1300 _1087_
*1301 _1088_
*1302 _1089_
*1303 _1090_
*1304 _1091_
*1305 _1092_
*1306 _1093_
*1307 _1094_
*1308 _1095_
*1309 _1096_
*1310 _1097_
*1311 _1098_
*1312 _1099_
*1313 _1100_
*1314 _1101_
*1315 _1102_
*1316 _1103_
*1317 _1104_
*1318 _1105_
*1319 _1106_
*1320 _1107_
*1321 _1108_
*1322 _1109_
*1323 _1110_
*1324 _1111_
*1325 _1112_
*1326 _1113_
*1327 _1114_
*1328 _1115_
*1329 _1116_
*1330 _1117_
*1331 _1118_
*1332 _1119_
*1333 _1120_
*1334 _1121_
*1335 _1122_
*1336 _1123_
*1337 _1124_
*1338 _1125_
*1339 _1126_
*1340 _1127_
*1341 _1128_
*1342 _1129_
*1343 _1130_
*1344 _1131_
*1345 _1132_
*1346 _1133_
*1347 _1134_
*1348 _1135_
*1349 _1136_
*1350 _1137_
*1351 _1138_
*1352 _1139_
*1353 _1140_
*1354 _1141_
*1355 _1142_
*1356 _1143_
*1357 _1144_
*1358 _1145_
*1359 _1146_
*1360 _1147_
*1361 _1148_
*1362 _1149_
*1363 _1150_
*1364 _1151_
*1365 _1152_
*1366 _1153_
*1367 _1154_
*1368 _1155_
*1369 _1156_
*1370 _1157_
*1371 _1158_
*1372 _1159_
*1373 _1160_
*1374 _1161_
*1375 _1162_
*1376 _1163_
*1377 clknet_0_wb_clk_i
*1378 clknet_1_0_0_wb_clk_i
*1379 clknet_1_1_0_wb_clk_i
*1380 clknet_leaf_0_wb_clk_i
*1381 clknet_leaf_10_wb_clk_i
*1382 clknet_leaf_1_wb_clk_i
*1383 clknet_leaf_2_wb_clk_i
*1384 clknet_leaf_3_wb_clk_i
*1385 clknet_leaf_4_wb_clk_i
*1386 clknet_leaf_5_wb_clk_i
*1387 clknet_leaf_6_wb_clk_i
*1388 clknet_leaf_7_wb_clk_i
*1389 clknet_leaf_8_wb_clk_i
*1390 clknet_leaf_9_wb_clk_i
*1391 ncnt\[0\]
*1392 ncnt\[1\]
*1393 ncnt\[2\]
*1394 ncnt\[3\]
*1395 ncnt\[4\]
*1396 ncnt\[5\]
*1397 ncnt\[6\]
*1398 ncnt\[7\]
*1399 net1
*1400 net10
*1401 net100
*1402 net101
*1403 net11
*1404 net12
*1405 net13
*1406 net14
*1407 net15
*1408 net16
*1409 net17
*1410 net18
*1411 net19
*1412 net2
*1413 net20
*1414 net21
*1415 net22
*1416 net23
*1417 net24
*1418 net25
*1419 net26
*1420 net27
*1421 net28
*1422 net29
*1423 net3
*1424 net30
*1425 net31
*1426 net32
*1427 net33
*1428 net34
*1429 net35
*1430 net36
*1431 net37
*1432 net38
*1433 net39
*1434 net4
*1435 net40
*1436 net41
*1437 net42
*1438 net43
*1439 net44
*1440 net45
*1441 net46
*1442 net47
*1443 net48
*1444 net49
*1445 net5
*1446 net50
*1447 net51
*1448 net52
*1449 net53
*1450 net54
*1451 net55
*1452 net56
*1453 net57
*1454 net58
*1455 net59
*1456 net6
*1457 net60
*1458 net61
*1459 net62
*1460 net63
*1461 net64
*1462 net65
*1463 net66
*1464 net67
*1465 net68
*1466 net69
*1467 net7
*1468 net70
*1469 net71
*1470 net72
*1471 net73
*1472 net74
*1473 net75
*1474 net76
*1475 net77
*1476 net78
*1477 net79
*1478 net8
*1479 net80
*1480 net81
*1481 net82
*1482 net83
*1483 net84
*1484 net85
*1485 net86
*1486 net87
*1487 net88
*1488 net89
*1489 net9
*1490 net90
*1491 net91
*1492 net92
*1493 net93
*1494 net94
*1495 net95
*1496 net96
*1497 net97
*1498 net98
*1499 net99
*1500 nstate\[0\]
*1501 spm\.csa0\.hsum2
*1502 spm\.csa0\.sc
*1503 spm\.csa0\.sum
*1504 spm\.csa0\.y
*1505 spm\.genblk1\[10\]\.csa\.hsum2
*1506 spm\.genblk1\[10\]\.csa\.sc
*1507 spm\.genblk1\[10\]\.csa\.sum
*1508 spm\.genblk1\[10\]\.csa\.y
*1509 spm\.genblk1\[11\]\.csa\.hsum2
*1510 spm\.genblk1\[11\]\.csa\.sc
*1511 spm\.genblk1\[11\]\.csa\.y
*1512 spm\.genblk1\[12\]\.csa\.hsum2
*1513 spm\.genblk1\[12\]\.csa\.sc
*1514 spm\.genblk1\[12\]\.csa\.y
*1515 spm\.genblk1\[13\]\.csa\.hsum2
*1516 spm\.genblk1\[13\]\.csa\.sc
*1517 spm\.genblk1\[13\]\.csa\.y
*1518 spm\.genblk1\[14\]\.csa\.hsum2
*1519 spm\.genblk1\[14\]\.csa\.sc
*1520 spm\.genblk1\[14\]\.csa\.y
*1521 spm\.genblk1\[15\]\.csa\.hsum2
*1522 spm\.genblk1\[15\]\.csa\.sc
*1523 spm\.genblk1\[15\]\.csa\.y
*1524 spm\.genblk1\[16\]\.csa\.hsum2
*1525 spm\.genblk1\[16\]\.csa\.sc
*1526 spm\.genblk1\[16\]\.csa\.y
*1527 spm\.genblk1\[17\]\.csa\.hsum2
*1528 spm\.genblk1\[17\]\.csa\.sc
*1529 spm\.genblk1\[17\]\.csa\.y
*1530 spm\.genblk1\[18\]\.csa\.hsum2
*1531 spm\.genblk1\[18\]\.csa\.sc
*1532 spm\.genblk1\[18\]\.csa\.y
*1533 spm\.genblk1\[19\]\.csa\.hsum2
*1534 spm\.genblk1\[19\]\.csa\.sc
*1535 spm\.genblk1\[19\]\.csa\.y
*1536 spm\.genblk1\[1\]\.csa\.hsum2
*1537 spm\.genblk1\[1\]\.csa\.sc
*1538 spm\.genblk1\[1\]\.csa\.y
*1539 spm\.genblk1\[20\]\.csa\.hsum2
*1540 spm\.genblk1\[20\]\.csa\.sc
*1541 spm\.genblk1\[20\]\.csa\.y
*1542 spm\.genblk1\[21\]\.csa\.hsum2
*1543 spm\.genblk1\[21\]\.csa\.sc
*1544 spm\.genblk1\[21\]\.csa\.y
*1545 spm\.genblk1\[22\]\.csa\.hsum2
*1546 spm\.genblk1\[22\]\.csa\.sc
*1547 spm\.genblk1\[22\]\.csa\.y
*1548 spm\.genblk1\[23\]\.csa\.hsum2
*1549 spm\.genblk1\[23\]\.csa\.sc
*1550 spm\.genblk1\[23\]\.csa\.y
*1551 spm\.genblk1\[24\]\.csa\.hsum2
*1552 spm\.genblk1\[24\]\.csa\.sc
*1553 spm\.genblk1\[24\]\.csa\.y
*1554 spm\.genblk1\[25\]\.csa\.hsum2
*1555 spm\.genblk1\[25\]\.csa\.sc
*1556 spm\.genblk1\[25\]\.csa\.y
*1557 spm\.genblk1\[26\]\.csa\.hsum2
*1558 spm\.genblk1\[26\]\.csa\.sc
*1559 spm\.genblk1\[26\]\.csa\.y
*1560 spm\.genblk1\[27\]\.csa\.hsum2
*1561 spm\.genblk1\[27\]\.csa\.sc
*1562 spm\.genblk1\[27\]\.csa\.y
*1563 spm\.genblk1\[28\]\.csa\.hsum2
*1564 spm\.genblk1\[28\]\.csa\.sc
*1565 spm\.genblk1\[28\]\.csa\.y
*1566 spm\.genblk1\[29\]\.csa\.hsum2
*1567 spm\.genblk1\[29\]\.csa\.sc
*1568 spm\.genblk1\[29\]\.csa\.y
*1569 spm\.genblk1\[2\]\.csa\.hsum2
*1570 spm\.genblk1\[2\]\.csa\.sc
*1571 spm\.genblk1\[2\]\.csa\.y
*1572 spm\.genblk1\[30\]\.csa\.hsum2
*1573 spm\.genblk1\[30\]\.csa\.sc
*1574 spm\.genblk1\[30\]\.csa\.y
*1575 spm\.genblk1\[3\]\.csa\.hsum2
*1576 spm\.genblk1\[3\]\.csa\.sc
*1577 spm\.genblk1\[3\]\.csa\.y
*1578 spm\.genblk1\[4\]\.csa\.hsum2
*1579 spm\.genblk1\[4\]\.csa\.sc
*1580 spm\.genblk1\[4\]\.csa\.y
*1581 spm\.genblk1\[5\]\.csa\.hsum2
*1582 spm\.genblk1\[5\]\.csa\.sc
*1583 spm\.genblk1\[5\]\.csa\.y
*1584 spm\.genblk1\[6\]\.csa\.hsum2
*1585 spm\.genblk1\[6\]\.csa\.sc
*1586 spm\.genblk1\[6\]\.csa\.y
*1587 spm\.genblk1\[7\]\.csa\.hsum2
*1588 spm\.genblk1\[7\]\.csa\.sc
*1589 spm\.genblk1\[7\]\.csa\.y
*1590 spm\.genblk1\[8\]\.csa\.hsum2
*1591 spm\.genblk1\[8\]\.csa\.sc
*1592 spm\.genblk1\[8\]\.csa\.y
*1593 spm\.genblk1\[9\]\.csa\.hsum2
*1594 spm\.genblk1\[9\]\.csa\.sc
*1595 spm\.tcmp\.z
*1596 spm\.x\[0\]
*1597 spm\.x\[10\]
*1598 spm\.x\[11\]
*1599 spm\.x\[12\]
*1600 spm\.x\[13\]
*1601 spm\.x\[14\]
*1602 spm\.x\[15\]
*1603 spm\.x\[16\]
*1604 spm\.x\[17\]
*1605 spm\.x\[18\]
*1606 spm\.x\[19\]
*1607 spm\.x\[1\]
*1608 spm\.x\[20\]
*1609 spm\.x\[21\]
*1610 spm\.x\[22\]
*1611 spm\.x\[23\]
*1612 spm\.x\[24\]
*1613 spm\.x\[25\]
*1614 spm\.x\[26\]
*1615 spm\.x\[27\]
*1616 spm\.x\[28\]
*1617 spm\.x\[29\]
*1618 spm\.x\[2\]
*1619 spm\.x\[30\]
*1620 spm\.x\[31\]
*1621 spm\.x\[3\]
*1622 spm\.x\[4\]
*1623 spm\.x\[5\]
*1624 spm\.x\[6\]
*1625 spm\.x\[7\]
*1626 spm\.x\[8\]
*1627 spm\.x\[9\]
*1628 spm\.y
*1629 ANTENNA__1164__A
*1630 ANTENNA__1168__A_N
*1631 ANTENNA__1169__A
*1632 ANTENNA__1169__B_N
*1633 ANTENNA__1170__A
*1634 ANTENNA__1178__A
*1635 ANTENNA__1182__A
*1636 ANTENNA__1183__A
*1637 ANTENNA__1183__B
*1638 ANTENNA__1186__A
*1639 ANTENNA__1187__C
*1640 ANTENNA__1188__B
*1641 ANTENNA__1189__A
*1642 ANTENNA__1189__B
*1643 ANTENNA__1189__C
*1644 ANTENNA__1191__A
*1645 ANTENNA__1193__A
*1646 ANTENNA__1194__A
*1647 ANTENNA__1195__A2
*1648 ANTENNA__1195__B1
*1649 ANTENNA__1196__A1
*1650 ANTENNA__1196__A2
*1651 ANTENNA__1197__A
*1652 ANTENNA__1198__A
*1653 ANTENNA__1199__A1
*1654 ANTENNA__1199__A2
*1655 ANTENNA__1199__B1_N
*1656 ANTENNA__1200__A
*1657 ANTENNA__1201__A
*1658 ANTENNA__1202__A
*1659 ANTENNA__1203__A
*1660 ANTENNA__1203__B
*1661 ANTENNA__1204__A
*1662 ANTENNA__1205__A
*1663 ANTENNA__1207__A2
*1664 ANTENNA__1208__A
*1665 ANTENNA__1209__A
*1666 ANTENNA__1211__A1
*1667 ANTENNA__1211__A2
*1668 ANTENNA__1211__B1_N
*1669 ANTENNA__1213__A
*1670 ANTENNA__1214__A
*1671 ANTENNA__1216__A2
*1672 ANTENNA__1218__A
*1673 ANTENNA__1219__A
*1674 ANTENNA__1220__A1
*1675 ANTENNA__1220__B1_N
*1676 ANTENNA__1222__A2
*1677 ANTENNA__1224__A
*1678 ANTENNA__1225__A1
*1679 ANTENNA__1225__B1_N
*1680 ANTENNA__1227__A2
*1681 ANTENNA__1229__A1
*1682 ANTENNA__1229__B1_N
*1683 ANTENNA__1231__A2
*1684 ANTENNA__1233__A
*1685 ANTENNA__1234__A1
*1686 ANTENNA__1234__B1_N
*1687 ANTENNA__1235__A
*1688 ANTENNA__1236__A
*1689 ANTENNA__1237__A
*1690 ANTENNA__1241__A1
*1691 ANTENNA__1241__B1_N
*1692 ANTENNA__1246__A
*1693 ANTENNA__1247__A1
*1694 ANTENNA__1247__B1_N
*1695 ANTENNA__1251__A
*1696 ANTENNA__1252__A
*1697 ANTENNA__1253__A1
*1698 ANTENNA__1257__A1
*1699 ANTENNA__1261__A
*1700 ANTENNA__1263__A
*1701 ANTENNA__1272__A
*1702 ANTENNA__1275__B1
*1703 ANTENNA__1277__A
*1704 ANTENNA__1282__A1
*1705 ANTENNA__1284__B1
*1706 ANTENNA__1286__A
*1707 ANTENNA__1287__A1
*1708 ANTENNA__1288__A
*1709 ANTENNA__1292__A1
*1710 ANTENNA__1297__A
*1711 ANTENNA__1298__A1
*1712 ANTENNA__1302__A
*1713 ANTENNA__1303__A1
*1714 ANTENNA__1311__A
*1715 ANTENNA__1313__A
*1716 ANTENNA__1316__A2
*1717 ANTENNA__1318__A
*1718 ANTENNA__1319__A
*1719 ANTENNA__1323__A2
*1720 ANTENNA__1325__A
*1721 ANTENNA__1329__A2
*1722 ANTENNA__1330__A
*1723 ANTENNA__1331__A1
*1724 ANTENNA__1334__A2
*1725 ANTENNA__1335__A1
*1726 ANTENNA__1338__A2
*1727 ANTENNA__1339__A
*1728 ANTENNA__1340__A1
*1729 ANTENNA__1341__A
*1730 ANTENNA__1344__A2
*1731 ANTENNA__1345__A1
*1732 ANTENNA__1349__A2
*1733 ANTENNA__1350__A
*1734 ANTENNA__1351__A1
*1735 ANTENNA__1354__A2
*1736 ANTENNA__1355__A
*1737 ANTENNA__1356__A1
*1738 ANTENNA__1356__B1_N
*1739 ANTENNA__1359__A2
*1740 ANTENNA__1360__A1
*1741 ANTENNA__1360__B1_N
*1742 ANTENNA__1363__A2
*1743 ANTENNA__1364__A1
*1744 ANTENNA__1364__B1_N
*1745 ANTENNA__1365__A
*1746 ANTENNA__1368__A2
*1747 ANTENNA__1368__B1
*1748 ANTENNA__1369__A2
*1749 ANTENNA__1370__S
*1750 ANTENNA__1372__S
*1751 ANTENNA__1374__A
*1752 ANTENNA__1385__A
*1753 ANTENNA__1386__A
*1754 ANTENNA__1397__A
*1755 ANTENNA__1408__A
*1756 ANTENNA__1419__A
*1757 ANTENNA__1430__A
*1758 ANTENNA__1431__S
*1759 ANTENNA__1433__S
*1760 ANTENNA__1435__S
*1761 ANTENNA__1437__S
*1762 ANTENNA__1439__S
*1763 ANTENNA__1441__A
*1764 ANTENNA__1447__A0
*1765 ANTENNA__1449__A0
*1766 ANTENNA__1449__A1
*1767 ANTENNA__1451__A1
*1768 ANTENNA__1458__A0
*1769 ANTENNA__1460__A1
*1770 ANTENNA__1462__A0
*1771 ANTENNA__1465__A0
*1772 ANTENNA__1465__A1
*1773 ANTENNA__1467__A1
*1774 ANTENNA__1487__S
*1775 ANTENNA__1489__S
*1776 ANTENNA__1491__S
*1777 ANTENNA__1493__S
*1778 ANTENNA__1495__S
*1779 ANTENNA__1497__A
*1780 ANTENNA__1498__S
*1781 ANTENNA__1500__S
*1782 ANTENNA__1502__S
*1783 ANTENNA__1504__A0
*1784 ANTENNA__1504__S
*1785 ANTENNA__1506__A0
*1786 ANTENNA__1506__A1
*1787 ANTENNA__1506__S
*1788 ANTENNA__1508__A0
*1789 ANTENNA__1508__A1
*1790 ANTENNA__1508__S
*1791 ANTENNA__1510__A1
*1792 ANTENNA__1510__S
*1793 ANTENNA__1512__A
*1794 ANTENNA__1512__B
*1795 ANTENNA__1512__D
*1796 ANTENNA__1513__A
*1797 ANTENNA__1514__A
*1798 ANTENNA__1515__A0
*1799 ANTENNA__1515__A1
*1800 ANTENNA__1517__A0
*1801 ANTENNA__1517__A1
*1802 ANTENNA__1519__A0
*1803 ANTENNA__1519__A1
*1804 ANTENNA__1521__A0
*1805 ANTENNA__1521__A1
*1806 ANTENNA__1523__A0
*1807 ANTENNA__1523__A1
*1808 ANTENNA__1525__A
*1809 ANTENNA__1526__A0
*1810 ANTENNA__1528__A0
*1811 ANTENNA__1530__A0
*1812 ANTENNA__1532__A0
*1813 ANTENNA__1534__A0
*1814 ANTENNA__1536__A
*1815 ANTENNA__1537__A0
*1816 ANTENNA__1547__A
*1817 ANTENNA__1548__A0
*1818 ANTENNA__1550__A0
*1819 ANTENNA__1552__A0
*1820 ANTENNA__1554__A0
*1821 ANTENNA__1556__A0
*1822 ANTENNA__1558__A
*1823 ANTENNA__1559__S
*1824 ANTENNA__1561__S
*1825 ANTENNA__1563__S
*1826 ANTENNA__1565__S
*1827 ANTENNA__1567__A0
*1828 ANTENNA__1567__S
*1829 ANTENNA__1569__A
*1830 ANTENNA__1570__A0
*1831 ANTENNA__1570__S
*1832 ANTENNA__1572__A0
*1833 ANTENNA__1572__S
*1834 ANTENNA__1574__A0
*1835 ANTENNA__1574__S
*1836 ANTENNA__1576__A0
*1837 ANTENNA__1576__A1
*1838 ANTENNA__1576__S
*1839 ANTENNA__1578__A0
*1840 ANTENNA__1578__S
*1841 ANTENNA__1580__A
*1842 ANTENNA__1581__A0
*1843 ANTENNA__1581__A1
*1844 ANTENNA__1581__S
*1845 ANTENNA__1583__A0
*1846 ANTENNA__1583__A1
*1847 ANTENNA__1583__S
*1848 ANTENNA__1589__A
*1849 ANTENNA__1591__A1
*1850 ANTENNA__1591__A2
*1851 ANTENNA__1594__B1
*1852 ANTENNA__1604__B1
*1853 ANTENNA__1608__B
*1854 ANTENNA__1620__A2
*1855 ANTENNA__1621__A
*1856 ANTENNA__1621__C
*1857 ANTENNA__1628__A
*1858 ANTENNA__1636__A
*1859 ANTENNA__1643__A
*1860 ANTENNA__1646__A
*1861 ANTENNA__1647__A
*1862 ANTENNA__1650__A1_N
*1863 ANTENNA__1651__A
*1864 ANTENNA__1652__C
*1865 ANTENNA__1657__A1_N
*1866 ANTENNA__1658__A
*1867 ANTENNA__1664__A1_N
*1868 ANTENNA__1671__A2
*1869 ANTENNA__1673__A
*1870 ANTENNA__1673__C
*1871 ANTENNA__1678__A1_N
*1872 ANTENNA__1685__A2
*1873 ANTENNA__1686__A
*1874 ANTENNA__1686__C
*1875 ANTENNA__1693__A
*1876 ANTENNA__1698__A1_N
*1877 ANTENNA__1702__A
*1878 ANTENNA__1712__A
*1879 ANTENNA__1713__C
*1880 ANTENNA__1718__A2_N
*1881 ANTENNA__1719__C
*1882 ANTENNA__1719__D
*1883 ANTENNA__1726__A1
*1884 ANTENNA__1726__A2
*1885 ANTENNA__1727__A
*1886 ANTENNA__1727__C
*1887 ANTENNA__1732__A2_N
*1888 ANTENNA__1733__C
*1889 ANTENNA__1733__D
*1890 ANTENNA__1736__A
*1891 ANTENNA__1737__B
*1892 ANTENNA__1738__A2
*1893 ANTENNA__1743__A2_N
*1894 ANTENNA__1744__C
*1895 ANTENNA__1744__D
*1896 ANTENNA__1747__A
*1897 ANTENNA__1750__A2_N
*1898 ANTENNA__1751__C
*1899 ANTENNA__1751__D
*1900 ANTENNA__1756__A2_N
*1901 ANTENNA__1757__A
*1902 ANTENNA__1758__D
*1903 ANTENNA__1763__A2_N
*1904 ANTENNA__1764__D