*SPEF "ieee 1481-1999"
*DESIGN "user_proj_example"
*DATE "11:11:11 Fri 11 11, 1111"
*VENDOR "OpenRCX"
*PROGRAM "Parallel Extraction"
*VERSION "1.0"
*DESIGN_FLOW "NAME_SCOPE LOCAL" "PIN_CAP NONE"
*DIVIDER /
*DELIMITER :
*BUS_DELIMITER []
*T_UNIT 1 NS
*C_UNIT 1 PF
*R_UNIT 1 OHM
*L_UNIT 1 HENRY

*NAME_MAP
*1 io_in[0]
*2 io_in[10]
*3 io_in[11]
*4 io_in[12]
*5 io_in[13]
*6 io_in[14]
*7 io_in[15]
*8 io_in[16]
*9 io_in[17]
*10 io_in[18]
*11 io_in[19]
*12 io_in[1]
*13 io_in[20]
*14 io_in[21]
*15 io_in[22]
*16 io_in[23]
*17 io_in[24]
*18 io_in[25]
*19 io_in[26]
*20 io_in[27]
*21 io_in[28]
*22 io_in[29]
*23 io_in[2]
*24 io_in[30]
*25 io_in[31]
*26 io_in[32]
*27 io_in[33]
*28 io_in[34]
*29 io_in[35]
*30 io_in[36]
*31 io_in[37]
*32 io_in[3]
*33 io_in[4]
*34 io_in[5]
*35 io_in[6]
*36 io_in[7]
*37 io_in[8]
*38 io_in[9]
*39 io_oeb[0]
*40 io_oeb[10]
*41 io_oeb[11]
*42 io_oeb[12]
*43 io_oeb[13]
*44 io_oeb[14]
*45 io_oeb[15]
*46 io_oeb[16]
*47 io_oeb[17]
*48 io_oeb[18]
*49 io_oeb[19]
*50 io_oeb[1]
*51 io_oeb[20]
*52 io_oeb[21]
*53 io_oeb[22]
*54 io_oeb[23]
*55 io_oeb[24]
*56 io_oeb[25]
*57 io_oeb[26]
*58 io_oeb[27]
*59 io_oeb[28]
*60 io_oeb[29]
*61 io_oeb[2]
*62 io_oeb[30]
*63 io_oeb[31]
*64 io_oeb[32]
*65 io_oeb[33]
*66 io_oeb[34]
*67 io_oeb[35]
*68 io_oeb[36]
*69 net143
*70 io_oeb[3]
*71 io_oeb[4]
*72 io_oeb[5]
*73 io_oeb[6]
*74 io_oeb[7]
*75 io_oeb[8]
*76 io_oeb[9]
*77 net144
*78 net154
*79 net155
*80 net156
*81 net157
*82 net158
*83 net159
*84 net160
*85 net161
*86 net162
*87 net163
*88 net145
*89 net164
*90 net165
*91 net166
*92 net167
*93 net168
*94 net169
*95 net170
*96 net171
*97 net172
*98 net173
*99 net146
*100 net174
*101 net175
*102 net176
*103 net177
*104 net178
*105 net179
*106 net180
*107 net181
*108 net147
*109 net148
*110 net149
*111 net150
*112 net151
*113 net152
*114 net153
*115 net182
*116 net183
*117 net184
*118 la_data_in[0]
*119 la_data_in[100]
*120 la_data_in[101]
*121 la_data_in[102]
*122 la_data_in[103]
*123 la_data_in[104]
*124 la_data_in[105]
*125 la_data_in[106]
*126 la_data_in[107]
*127 la_data_in[108]
*128 la_data_in[109]
*129 la_data_in[10]
*130 la_data_in[110]
*131 la_data_in[111]
*132 la_data_in[112]
*133 la_data_in[113]
*134 la_data_in[114]
*135 la_data_in[115]
*136 la_data_in[116]
*137 la_data_in[117]
*138 la_data_in[118]
*139 la_data_in[119]
*140 la_data_in[11]
*141 la_data_in[120]
*142 la_data_in[121]
*143 la_data_in[122]
*144 la_data_in[123]
*145 la_data_in[124]
*146 la_data_in[125]
*147 la_data_in[126]
*148 la_data_in[127]
*149 la_data_in[12]
*150 la_data_in[13]
*151 la_data_in[14]
*152 la_data_in[15]
*153 la_data_in[16]
*154 la_data_in[17]
*155 la_data_in[18]
*156 la_data_in[19]
*157 la_data_in[1]
*158 la_data_in[20]
*159 la_data_in[21]
*160 la_data_in[22]
*161 la_data_in[23]
*162 la_data_in[24]
*163 la_data_in[25]
*164 la_data_in[26]
*165 la_data_in[27]
*166 la_data_in[28]
*167 la_data_in[29]
*168 la_data_in[2]
*169 la_data_in[30]
*170 la_data_in[31]
*171 la_data_in[32]
*172 la_data_in[33]
*173 la_data_in[34]
*174 la_data_in[35]
*175 la_data_in[36]
*176 la_data_in[37]
*177 la_data_in[38]
*178 la_data_in[39]
*179 la_data_in[3]
*180 la_data_in[40]
*181 la_data_in[41]
*182 la_data_in[42]
*183 la_data_in[43]
*184 la_data_in[44]
*185 la_data_in[45]
*186 la_data_in[46]
*187 la_data_in[47]
*188 la_data_in[48]
*189 la_data_in[49]
*190 la_data_in[4]
*191 la_data_in[50]
*192 la_data_in[51]
*193 la_data_in[52]
*194 la_data_in[53]
*195 la_data_in[54]
*196 la_data_in[55]
*197 la_data_in[56]
*198 la_data_in[57]
*199 la_data_in[58]
*200 la_data_in[59]
*201 la_data_in[5]
*202 la_data_in[60]
*203 la_data_in[61]
*204 la_data_in[62]
*205 la_data_in[63]
*206 la_data_in[64]
*207 la_data_in[65]
*208 la_data_in[66]
*209 la_data_in[67]
*210 la_data_in[68]
*211 la_data_in[69]
*212 la_data_in[6]
*213 la_data_in[70]
*214 la_data_in[71]
*215 la_data_in[72]
*216 la_data_in[73]
*217 la_data_in[74]
*218 la_data_in[75]
*219 la_data_in[76]
*220 la_data_in[77]
*221 la_data_in[78]
*222 la_data_in[79]
*223 la_data_in[7]
*224 la_data_in[80]
*225 la_data_in[81]
*226 la_data_in[82]
*227 la_data_in[83]
*228 la_data_in[84]
*229 la_data_in[85]
*230 la_data_in[86]
*231 la_data_in[87]
*232 la_data_in[88]
*233 la_data_in[89]
*234 la_data_in[8]
*235 la_data_in[90]
*236 la_data_in[91]
*237 la_data_in[92]
*238 la_data_in[93]
*239 la_data_in[94]
*240 la_data_in[95]
*241 la_data_in[96]
*242 la_data_in[97]
*243 la_data_in[98]
*244 la_data_in[99]
*245 la_data_in[9]
*246 net185
*247 net285
*248 net286
*249 net287
*250 net288
*251 net289
*252 net290
*253 net291
*254 net292
*255 net293
*256 net294
*257 net195
*258 net295
*259 net296
*260 net297
*261 net298
*262 net299
*263 net300
*264 net301
*265 net302
*266 net303
*267 net304
*268 net196
*269 net305
*270 net306
*271 net307
*272 net308
*273 net309
*274 net310
*275 net311
*276 net312
*277 net197
*278 net198
*279 net199
*280 net200
*281 net201
*282 net202
*283 net203
*284 net204
*285 net186
*286 net205
*287 net206
*288 net207
*289 net208
*290 net209
*291 net210
*292 net211
*293 net212
*294 net213
*295 net214
*296 net187
*297 net215
*298 net216
*299 net217
*300 net218
*301 net219
*302 net220
*303 net221
*304 net222
*305 net223
*306 net224
*307 net188
*308 net225
*309 net226
*310 net227
*311 net228
*312 net229
*313 net230
*314 net231
*315 net232
*316 net233
*317 net234
*318 net189
*319 net235
*320 net236
*321 net237
*322 net238
*323 net239
*324 net240
*325 net241
*326 net242
*327 net243
*328 net244
*329 net190
*330 net245
*331 net246
*332 net247
*333 net248
*334 net249
*335 net250
*336 net251
*337 net252
*338 net253
*339 net254
*340 net191
*341 net255
*342 net256
*343 net257
*344 net258
*345 net259
*346 net260
*347 net261
*348 net262
*349 net263
*350 net264
*351 net192
*352 net265
*353 net266
*354 net267
*355 net268
*356 net269
*357 net270
*358 net271
*359 net272
*360 net273
*361 net274
*362 net193
*363 net275
*364 net276
*365 net277
*366 net278
*367 net279
*368 net280
*369 net281
*370 net282
*371 net283
*372 net284
*373 net194
*374 la_oenb[0]
*375 la_oenb[100]
*376 la_oenb[101]
*377 la_oenb[102]
*378 la_oenb[103]
*379 la_oenb[104]
*380 la_oenb[105]
*381 la_oenb[106]
*382 la_oenb[107]
*383 la_oenb[108]
*384 la_oenb[109]
*385 la_oenb[10]
*386 la_oenb[110]
*387 la_oenb[111]
*388 la_oenb[112]
*389 la_oenb[113]
*390 la_oenb[114]
*391 la_oenb[115]
*392 la_oenb[116]
*393 la_oenb[117]
*394 la_oenb[118]
*395 la_oenb[119]
*396 la_oenb[11]
*397 la_oenb[120]
*398 la_oenb[121]
*399 la_oenb[122]
*400 la_oenb[123]
*401 la_oenb[124]
*402 la_oenb[125]
*403 la_oenb[126]
*404 la_oenb[127]
*405 la_oenb[12]
*406 la_oenb[13]
*407 la_oenb[14]
*408 la_oenb[15]
*409 la_oenb[16]
*410 la_oenb[17]
*411 la_oenb[18]
*412 la_oenb[19]
*413 la_oenb[1]
*414 la_oenb[20]
*415 la_oenb[21]
*416 la_oenb[22]
*417 la_oenb[23]
*418 la_oenb[24]
*419 la_oenb[25]
*420 la_oenb[26]
*421 la_oenb[27]
*422 la_oenb[28]
*423 la_oenb[29]
*424 la_oenb[2]
*425 la_oenb[30]
*426 la_oenb[31]
*427 la_oenb[32]
*428 la_oenb[33]
*429 la_oenb[34]
*430 la_oenb[35]
*431 la_oenb[36]
*432 la_oenb[37]
*433 la_oenb[38]
*434 la_oenb[39]
*435 la_oenb[3]
*436 la_oenb[40]
*437 la_oenb[41]
*438 la_oenb[42]
*439 la_oenb[43]
*440 la_oenb[44]
*441 la_oenb[45]
*442 la_oenb[46]
*443 la_oenb[47]
*444 la_oenb[48]
*445 la_oenb[49]
*446 la_oenb[4]
*447 la_oenb[50]
*448 la_oenb[51]
*449 la_oenb[52]
*450 la_oenb[53]
*451 la_oenb[54]
*452 la_oenb[55]
*453 la_oenb[56]
*454 la_oenb[57]
*455 la_oenb[58]
*456 la_oenb[59]
*457 la_oenb[5]
*458 la_oenb[60]
*459 la_oenb[61]
*460 la_oenb[62]
*461 la_oenb[63]
*462 la_oenb[64]
*463 la_oenb[65]
*464 la_oenb[66]
*465 la_oenb[67]
*466 la_oenb[68]
*467 la_oenb[69]
*468 la_oenb[6]
*469 la_oenb[70]
*470 la_oenb[71]
*471 la_oenb[72]
*472 la_oenb[73]
*473 la_oenb[74]
*474 la_oenb[75]
*475 la_oenb[76]
*476 la_oenb[77]
*477 la_oenb[78]
*478 la_oenb[79]
*479 la_oenb[7]
*480 la_oenb[80]
*481 la_oenb[81]
*482 la_oenb[82]
*483 la_oenb[83]
*484 la_oenb[84]
*485 la_oenb[85]
*486 la_oenb[86]
*487 la_oenb[87]
*488 la_oenb[88]
*489 la_oenb[89]
*490 la_oenb[8]
*491 la_oenb[90]
*492 la_oenb[91]
*493 la_oenb[92]
*494 la_oenb[93]
*495 la_oenb[94]
*496 la_oenb[95]
*497 la_oenb[96]
*498 la_oenb[97]
*499 la_oenb[98]
*500 la_oenb[99]
*501 la_oenb[9]
*504 wb_clk_i
*505 wb_rst_i
*506 wbs_ack_o
*507 wbs_adr_i[0]
*508 wbs_adr_i[10]
*509 wbs_adr_i[11]
*510 wbs_adr_i[12]
*511 wbs_adr_i[13]
*512 wbs_adr_i[14]
*513 wbs_adr_i[15]
*514 wbs_adr_i[16]
*515 wbs_adr_i[17]
*516 wbs_adr_i[18]
*517 wbs_adr_i[19]
*518 wbs_adr_i[1]
*519 wbs_adr_i[20]
*520 wbs_adr_i[21]
*521 wbs_adr_i[22]
*522 wbs_adr_i[23]
*523 wbs_adr_i[24]
*524 wbs_adr_i[25]
*525 wbs_adr_i[26]
*526 wbs_adr_i[27]
*527 wbs_adr_i[28]
*528 wbs_adr_i[29]
*529 wbs_adr_i[2]
*530 wbs_adr_i[30]
*531 wbs_adr_i[31]
*532 wbs_adr_i[3]
*533 wbs_adr_i[4]
*534 wbs_adr_i[5]
*535 wbs_adr_i[6]
*536 wbs_adr_i[7]
*537 wbs_adr_i[8]
*538 wbs_adr_i[9]
*539 wbs_cyc_i
*540 wbs_dat_i[0]
*541 wbs_dat_i[10]
*542 wbs_dat_i[11]
*543 wbs_dat_i[12]
*544 wbs_dat_i[13]
*545 wbs_dat_i[14]
*546 wbs_dat_i[15]
*547 wbs_dat_i[16]
*548 wbs_dat_i[17]
*549 wbs_dat_i[18]
*550 wbs_dat_i[19]
*551 wbs_dat_i[1]
*552 wbs_dat_i[20]
*553 wbs_dat_i[21]
*554 wbs_dat_i[22]
*555 wbs_dat_i[23]
*556 wbs_dat_i[24]
*557 wbs_dat_i[25]
*558 wbs_dat_i[26]
*559 wbs_dat_i[27]
*560 wbs_dat_i[28]
*561 wbs_dat_i[29]
*562 wbs_dat_i[2]
*563 wbs_dat_i[30]
*564 wbs_dat_i[31]
*565 wbs_dat_i[3]
*566 wbs_dat_i[4]
*567 wbs_dat_i[5]
*568 wbs_dat_i[6]
*569 wbs_dat_i[7]
*570 wbs_dat_i[8]
*571 wbs_dat_i[9]
*572 wbs_dat_o[0]
*573 wbs_dat_o[10]
*574 wbs_dat_o[11]
*575 wbs_dat_o[12]
*576 wbs_dat_o[13]
*577 wbs_dat_o[14]
*578 wbs_dat_o[15]
*579 wbs_dat_o[16]
*580 wbs_dat_o[17]
*581 wbs_dat_o[18]
*582 wbs_dat_o[19]
*583 wbs_dat_o[1]
*584 wbs_dat_o[20]
*585 wbs_dat_o[21]
*586 wbs_dat_o[22]
*587 wbs_dat_o[23]
*588 wbs_dat_o[24]
*589 wbs_dat_o[25]
*590 wbs_dat_o[26]
*591 wbs_dat_o[27]
*592 wbs_dat_o[28]
*593 wbs_dat_o[29]
*594 wbs_dat_o[2]
*595 wbs_dat_o[30]
*596 wbs_dat_o[31]
*597 wbs_dat_o[3]
*598 wbs_dat_o[4]
*599 wbs_dat_o[5]
*600 wbs_dat_o[6]
*601 wbs_dat_o[7]
*602 wbs_dat_o[8]
*603 wbs_dat_o[9]
*604 wbs_sel_i[0]
*605 wbs_sel_i[1]
*606 wbs_sel_i[2]
*607 wbs_sel_i[3]
*608 wbs_stb_i
*609 wbs_we_i
*610 CNT\[0\]
*611 CNT\[1\]
*612 CNT\[2\]
*613 CNT\[3\]
*614 CNT\[4\]
*615 CNT\[5\]
*616 CNT\[6\]
*617 CNT\[7\]
*618 P0\[0\]
*619 P0\[10\]
*620 P0\[11\]
*621 P0\[12\]
*622 P0\[13\]
*623 P0\[14\]
*624 P0\[15\]
*625 P0\[16\]
*626 P0\[17\]
*627 P0\[18\]
*628 P0\[19\]
*629 P0\[1\]
*630 P0\[20\]
*631 P0\[21\]
*632 P0\[22\]
*633 P0\[23\]
*634 P0\[24\]
*635 P0\[25\]
*636 P0\[26\]
*637 P0\[27\]
*638 P0\[28\]
*639 P0\[29\]
*640 P0\[2\]
*641 P0\[30\]
*642 P0\[31\]
*643 P0\[32\]
*644 P0\[33\]
*645 P0\[34\]
*646 P0\[35\]
*647 P0\[36\]
*648 P0\[37\]
*649 P0\[38\]
*650 P0\[39\]
*651 P0\[3\]
*652 P0\[40\]
*653 P0\[41\]
*654 P0\[42\]
*655 P0\[43\]
*656 P0\[44\]
*657 P0\[45\]
*658 P0\[46\]
*659 P0\[47\]
*660 P0\[48\]
*661 P0\[49\]
*662 P0\[4\]
*663 P0\[50\]
*664 P0\[51\]
*665 P0\[52\]
*666 P0\[53\]
*667 P0\[54\]
*668 P0\[55\]
*669 P0\[56\]
*670 P0\[57\]
*671 P0\[58\]
*672 P0\[59\]
*673 P0\[5\]
*674 P0\[60\]
*675 P0\[61\]
*676 P0\[62\]
*677 P0\[63\]
*678 P0\[6\]
*679 P0\[7\]
*680 P0\[8\]
*681 P0\[9\]
*682 STATE
*683 Y\[10\]
*684 Y\[11\]
*685 Y\[12\]
*686 Y\[13\]
*687 Y\[14\]
*688 Y\[15\]
*689 Y\[16\]
*690 Y\[17\]
*691 Y\[18\]
*692 Y\[19\]
*693 Y\[1\]
*694 Y\[20\]
*695 Y\[21\]
*696 Y\[22\]
*697 Y\[23\]
*698 Y\[24\]
*699 Y\[25\]
*700 Y\[26\]
*701 Y\[27\]
*702 Y\[28\]
*703 Y\[29\]
*704 Y\[2\]
*705 Y\[30\]
*706 Y\[31\]
*707 Y\[3\]
*708 Y\[4\]
*709 Y\[5\]
*710 Y\[6\]
*711 Y\[7\]
*712 Y\[8\]
*713 Y\[9\]
*714 _0000_
*715 _0001_
*716 _0002_
*717 _0003_
*718 _0004_
*719 _0005_
*720 _0006_
*721 _0007_
*722 _0008_
*723 _0009_
*724 _0010_
*725 _0011_
*726 _0012_
*727 _0013_
*728 _0014_
*729 _0015_
*730 _0016_
*731 _0017_
*732 _0018_
*733 _0019_
*734 _0020_
*735 _0021_
*736 _0022_
*737 _0023_
*738 _0024_
*739 _0025_
*740 _0026_
*741 _0027_
*742 _0028_
*743 _0029_
*744 _0030_
*745 _0031_
*746 _0032_
*747 _0033_
*748 _0034_
*749 _0035_
*750 _0036_
*751 _0037_
*752 _0038_
*753 _0039_
*754 _0040_
*755 _0041_
*756 _0042_
*757 _0043_
*758 _0044_
*759 _0045_
*760 _0046_
*761 _0047_
*762 _0048_
*763 _0049_
*764 _0050_
*765 _0051_
*766 _0052_
*767 _0053_
*768 _0054_
*769 _0055_
*770 _0056_
*771 _0057_
*772 _0058_
*773 _0059_
*774 _0060_
*775 _0061_
*776 _0062_
*777 _0063_
*778 _0064_
*779 _0065_
*780 _0066_
*781 _0067_
*782 _0068_
*783 _0069_
*784 _0070_
*785 _0071_
*786 _0072_
*787 _0073_
*788 _0074_
*789 _0075_
*790 _0076_
*791 _0077_
*792 _0078_
*793 _0079_
*794 _0080_
*795 _0081_
*796 _0082_
*797 _0083_
*798 _0084_
*799 _0085_
*800 _0086_
*801 _0087_
*802 _0088_
*803 _0089_
*804 _0090_
*805 _0091_
*806 _0092_
*807 _0093_
*808 _0094_
*809 _0095_
*810 _0096_
*811 _0097_
*812 _0098_
*813 _0099_
*814 _0100_
*815 _0101_
*816 _0102_
*817 _0103_
*818 _0104_
*819 _0105_
*820 _0106_
*821 _0107_
*822 _0108_
*823 _0109_
*824 _0110_
*825 _0111_
*826 _0112_
*827 _0113_
*828 _0114_
*829 _0115_
*830 _0116_
*831 _0117_
*832 _0118_
*833 _0119_
*834 _0120_
*835 _0121_
*836 _0122_
*837 _0123_
*838 _0124_
*839 _0125_
*840 _0126_
*841 _0127_
*842 _0128_
*843 _0129_
*844 _0130_
*845 _0131_
*846 _0132_
*847 _0133_
*848 _0134_
*849 _0135_
*850 _0136_
*851 _0137_
*852 _0138_
*853 _0139_
*854 _0140_
*855 _0141_
*856 _0142_
*857 _0143_
*858 _0144_
*859 _0145_
*860 _0146_
*861 _0147_
*862 _0148_
*863 _0149_
*864 _0150_
*865 _0151_
*866 _0152_
*867 _0153_
*868 _0154_
*869 _0155_
*870 _0156_
*871 _0157_
*872 _0158_
*873 _0159_
*874 _0160_
*875 _0161_
*876 _0162_
*877 _0163_
*878 _0164_
*879 _0165_
*880 _0166_
*881 _0167_
*882 _0168_
*883 _0169_
*884 _0170_
*885 _0171_
*886 _0172_
*887 _0173_
*888 _0174_
*889 _0175_
*890 _0176_
*891 _0177_
*892 _0178_
*893 _0179_
*894 _0180_
*895 _0181_
*896 _0182_
*897 _0183_
*898 _0184_
*899 _0185_
*900 _0186_
*901 _0187_
*902 _0188_
*903 _0189_
*904 _0190_
*905 _0191_
*906 _0192_
*907 _0193_
*908 _0194_
*909 _0195_
*910 _0196_
*911 _0197_
*912 _0198_
*913 _0199_
*914 _0200_
*915 _0201_
*916 _0202_
*917 _0203_
*918 _0204_
*919 _0205_
*920 _0206_
*921 _0207_
*922 _0208_
*923 _0209_
*924 _0210_
*925 _0211_
*926 _0212_
*927 _0213_
*928 _0214_
*929 _0215_
*930 _0216_
*931 _0217_
*932 _0218_
*933 _0219_
*934 _0220_
*935 _0221_
*936 _0222_
*937 _0223_
*938 _0224_
*939 _0225_
*940 _0226_
*941 _0227_
*942 _0228_
*943 _0229_
*944 _0230_
*945 _0231_
*946 _0232_
*947 _0233_
*948 _0234_
*949 _0235_
*950 _0236_
*951 _0237_
*952 _0238_
*953 _0239_
*954 _0240_
*955 _0241_
*956 _0242_
*957 _0243_
*958 _0244_
*959 _0245_
*960 _0246_
*961 _0247_
*962 _0248_
*963 _0249_
*964 _0250_
*965 _0251_
*966 _0252_
*967 _0253_
*968 _0254_
*969 _0255_
*970 _0256_
*971 _0257_
*972 _0258_
*973 _0259_
*974 _0260_
*975 _0261_
*976 _0262_
*977 _0263_
*978 _0264_
*979 _0265_
*980 _0266_
*981 _0267_
*982 _0268_
*983 _0269_
*984 _0270_
*985 _0271_
*986 _0272_
*987 _0273_
*988 _0274_
*989 _0275_
*990 _0276_
*991 _0277_
*992 _0278_
*993 _0279_
*994 _0280_
*995 _0281_
*996 _0282_
*997 _0283_
*998 _0284_
*999 _0285_
*1000 _0286_
*1001 _0287_
*1002 _0288_
*1003 _0289_
*1004 _0290_
*1005 _0291_
*1006 _0292_
*1007 _0293_
*1008 _0294_
*1009 _0295_
*1010 _0296_
*1011 _0297_
*1012 _0298_
*1013 _0299_
*1014 _0300_
*1015 _0301_
*1016 _0302_
*1017 _0303_
*1018 _0304_
*1019 _0305_
*1020 _0306_
*1021 _0307_
*1022 _0308_
*1023 _0309_
*1024 _0310_
*1025 _0311_
*1026 _0312_
*1027 _0313_
*1028 _0314_
*1029 _0315_
*1030 _0316_
*1031 _0317_
*1032 _0318_
*1033 _0319_
*1034 _0320_
*1035 _0321_
*1036 _0322_
*1037 _0323_
*1038 _0324_
*1039 _0325_
*1040 _0326_
*1041 _0327_
*1042 _0328_
*1043 _0329_
*1044 _0330_
*1045 _0331_
*1046 _0332_
*1047 _0333_
*1048 _0334_
*1049 _0335_
*1050 _0336_
*1051 _0337_
*1052 _0338_
*1053 _0339_
*1054 _0340_
*1055 _0341_
*1056 _0342_
*1057 _0343_
*1058 _0344_
*1059 _0345_
*1060 _0346_
*1061 _0347_
*1062 _0348_
*1063 _0349_
*1064 _0350_
*1065 _0351_
*1066 _0352_
*1067 _0353_
*1068 _0354_
*1069 _0355_
*1070 _0356_
*1071 _0357_
*1072 _0358_
*1073 _0359_
*1074 _0360_
*1075 _0361_
*1076 _0362_
*1077 _0363_
*1078 _0364_
*1079 _0365_
*1080 _0366_
*1081 _0367_
*1082 _0368_
*1083 _0369_
*1084 _0370_
*1085 _0371_
*1086 _0372_
*1087 _0373_
*1088 _0374_
*1089 _0375_
*1090 _0376_
*1091 _0377_
*1092 _0378_
*1093 _0379_
*1094 _0380_
*1095 _0381_
*1096 _0382_
*1097 _0383_
*1098 _0384_
*1099 _0385_
*1100 _0386_
*1101 _0387_
*1102 _0388_
*1103 _0389_
*1104 _0390_
*1105 _0391_
*1106 _0392_
*1107 _0393_
*1108 _0394_
*1109 _0395_
*1110 _0396_
*1111 _0397_
*1112 _0398_
*1113 _0399_
*1114 _0400_
*1115 _0401_
*1116 _0402_
*1117 _0403_
*1118 _0404_
*1119 _0405_
*1120 _0406_
*1121 _0407_
*1122 _0408_
*1123 _0409_
*1124 _0410_
*1125 _0411_
*1126 _0412_
*1127 _0413_
*1128 _0414_
*1129 _0415_
*1130 _0416_
*1131 _0417_
*1132 _0418_
*1133 _0419_
*1134 _0420_
*1135 _0421_
*1136 _0422_
*1137 _0423_
*1138 _0424_
*1139 _0425_
*1140 _0426_
*1141 _0427_
*1142 _0428_
*1143 _0429_
*1144 _0430_
*1145 _0431_
*1146 _0432_
*1147 _0433_
*1148 _0434_
*1149 _0435_
*1150 _0436_
*1151 _0437_
*1152 _0438_
*1153 _0439_
*1154 _0440_
*1155 _0441_
*1156 _0442_
*1157 _0443_
*1158 _0444_
*1159 _0445_
*1160 _0446_
*1161 _0447_
*1162 _0448_
*1163 _0449_
*1164 _0450_
*1165 _0451_
*1166 _0452_
*1167 _0453_
*1168 _0454_
*1169 _0455_
*1170 _0456_
*1171 _0457_
*1172 _0458_
*1173 _0459_
*1174 _0460_
*1175 _0461_
*1176 _0462_
*1177 _0463_
*1178 _0464_
*1179 _0465_
*1180 _0466_
*1181 _0467_
*1182 _0468_
*1183 _0469_
*1184 _0470_
*1185 _0471_
*1186 _0472_
*1187 _0473_
*1188 _0474_
*1189 _0475_
*1190 _0476_
*1191 _0477_
*1192 _0478_
*1193 _0479_
*1194 _0480_
*1195 _0481_
*1196 _0482_
*1197 _0483_
*1198 _0484_
*1199 _0485_
*1200 _0486_
*1201 _0487_
*1202 _0488_
*1203 _0489_
*1204 _0490_
*1205 _0491_
*1206 _0492_
*1207 _0493_
*1208 _0494_
*1209 _0495_
*1210 _0496_
*1211 _0497_
*1212 _0498_
*1213 _0499_
*1214 _0500_
*1215 _0501_
*1216 _0502_
*1217 _0503_
*1218 _0504_
*1219 _0505_
*1220 _0506_
*1221 _0507_
*1222 _0508_
*1223 _0509_
*1224 _0510_
*1225 _0511_
*1226 _0512_
*1227 _0513_
*1228 _0514_
*1229 _0515_
*1230 _0516_
*1231 _0517_
*1232 _0518_
*1233 _0519_
*1234 _0520_
*1235 _0521_
*1236 _0522_
*1237 _0523_
*1238 _0524_
*1239 _0525_
*1240 _0526_
*1241 _0527_
*1242 _0528_
*1243 _0529_
*1244 _0530_
*1245 _0531_
*1246 _0532_
*1247 _0533_
*1248 _0534_
*1249 _0535_
*1250 _0536_
*1251 _0537_
*1252 _0538_
*1253 _0539_
*1254 _0540_
*1255 _0541_
*1256 _0542_
*1257 _0543_
*1258 _0544_
*1259 _0545_
*1260 _0546_
*1261 _0547_
*1262 _0548_
*1263 _0549_
*1264 _0550_
*1265 _0551_
*1266 _0552_
*1267 _0553_
*1268 _0554_
*1269 _0555_
*1270 _0556_
*1271 _0557_
*1272 _0558_
*1273 _0559_
*1274 _0560_
*1275 _0561_
*1276 _0562_
*1277 _0563_
*1278 _0564_
*1279 _0565_
*1280 _0566_
*1281 _0567_
*1282 _0568_
*1283 _0569_
*1284 _0570_
*1285 _0571_
*1286 _0572_
*1287 _0573_
*1288 _0574_
*1289 _0575_
*1290 _0576_
*1291 _0577_
*1292 _0578_
*1293 _0579_
*1294 _0580_
*1295 _0581_
*1296 _0582_
*1297 _0583_
*1298 _0584_
*1299 _0585_
*1300 _0586_
*1301 _0587_
*1302 _0588_
*1303 _0589_
*1304 _0590_
*1305 _0591_
*1306 _0592_
*1307 _0593_
*1308 _0594_
*1309 _0595_
*1310 _0596_
*1311 _0597_
*1312 _0598_
*1313 _0599_
*1314 _0600_
*1315 _0601_
*1316 _0602_
*1317 _0603_
*1318 _0604_
*1319 _0605_
*1320 _0606_
*1321 _0607_
*1322 _0608_
*1323 _0609_
*1324 _0610_
*1325 _0611_
*1326 _0612_
*1327 _0613_
*1328 _0614_
*1329 _0615_
*1330 _0616_
*1331 _0617_
*1332 _0618_
*1333 _0619_
*1334 _0620_
*1335 _0621_
*1336 _0622_
*1337 _0623_
*1338 _0624_
*1339 _0625_
*1340 _0626_
*1341 _0627_
*1342 _0628_
*1343 _0629_
*1344 _0630_
*1345 _0631_
*1346 _0632_
*1347 _0633_
*1348 _0634_
*1349 _0635_
*1350 _0636_
*1351 _0637_
*1352 _0638_
*1353 _0639_
*1354 _0640_
*1355 _0641_
*1356 _0642_
*1357 _0643_
*1358 _0644_
*1359 _0645_
*1360 _0646_
*1361 _0647_
*1362 _0648_
*1363 _0649_
*1364 _0650_
*1365 _0651_
*1366 _0652_
*1367 _0653_
*1368 _0654_
*1369 _0655_
*1370 _0656_
*1371 _0657_
*1372 _0658_
*1373 _0659_
*1374 _0660_
*1375 _0661_
*1376 _0662_
*1377 _0663_
*1378 _0664_
*1379 _0665_
*1380 _0666_
*1381 _0667_
*1382 _0668_
*1383 _0669_
*1384 _0670_
*1385 _0671_
*1386 _0672_
*1387 _0673_
*1388 _0674_
*1389 _0675_
*1390 _0676_
*1391 _0677_
*1392 _0678_
*1393 _0679_
*1394 _0680_
*1395 _0681_
*1396 _0682_
*1397 _0683_
*1398 _0684_
*1399 _0685_
*1400 _0686_
*1401 _0687_
*1402 _0688_
*1403 _0689_
*1404 _0690_
*1405 _0691_
*1406 _0692_
*1407 _0693_
*1408 _0694_
*1409 _0695_
*1410 _0696_
*1411 _0697_
*1412 _0698_
*1413 _0699_
*1414 _0700_
*1415 _0701_
*1416 _0702_
*1417 _0703_
*1418 _0704_
*1419 _0705_
*1420 _0706_
*1421 _0707_
*1422 _0708_
*1423 _0709_
*1424 _0710_
*1425 _0711_
*1426 _0712_
*1427 _0713_
*1428 _0714_
*1429 _0715_
*1430 _0716_
*1431 _0717_
*1432 _0718_
*1433 _0719_
*1434 _0720_
*1435 _0721_
*1436 _0722_
*1437 _0723_
*1438 _0724_
*1439 _0725_
*1440 _0726_
*1441 _0727_
*1442 _0728_
*1443 _0729_
*1444 _0730_
*1445 _0731_
*1446 _0732_
*1447 _0733_
*1448 _0734_
*1449 _0735_
*1450 _0736_
*1451 _0737_
*1452 _0738_
*1453 _0739_
*1454 _0740_
*1455 _0741_
*1456 _0742_
*1457 _0743_
*1458 _0744_
*1459 _0745_
*1460 _0746_
*1461 _0747_
*1462 _0748_
*1463 _0749_
*1464 _0750_
*1465 _0751_
*1466 _0752_
*1467 _0753_
*1468 _0754_
*1469 _0755_
*1470 _0756_
*1471 _0757_
*1472 _0758_
*1473 _0759_
*1474 _0760_
*1475 _0761_
*1476 _0762_
*1477 _0763_
*1478 _0764_
*1479 _0765_
*1480 _0766_
*1481 _0767_
*1482 _0768_
*1483 _0769_
*1484 _0770_
*1485 _0771_
*1486 _0772_
*1487 _0773_
*1488 _0774_
*1489 _0775_
*1490 _0776_
*1491 _0777_
*1492 _0778_
*1493 _0779_
*1494 _0780_
*1495 _0781_
*1496 _0782_
*1497 _0783_
*1498 _0784_
*1499 _0785_
*1500 _0786_
*1501 _0787_
*1502 _0788_
*1503 _0789_
*1504 _0790_
*1505 _0791_
*1506 _0792_
*1507 _0793_
*1508 _0794_
*1509 _0795_
*1510 _0796_
*1511 _0797_
*1512 _0798_
*1513 _0799_
*1514 _0800_
*1515 _0801_
*1516 _0802_
*1517 _0803_
*1518 _0804_
*1519 _0805_
*1520 _0806_
*1521 _0807_
*1522 _0808_
*1523 _0809_
*1524 _0810_
*1525 _0811_
*1526 _0812_
*1527 _0813_
*1528 _0814_
*1529 _0815_
*1530 _0816_
*1531 _0817_
*1532 _0818_
*1533 _0819_
*1534 _0820_
*1535 _0821_
*1536 _0822_
*1537 _0823_
*1538 _0824_
*1539 _0825_
*1540 _0826_
*1541 _0827_
*1542 _0828_
*1543 _0829_
*1544 _0830_
*1545 _0831_
*1546 _0832_
*1547 _0833_
*1548 _0834_
*1549 _0835_
*1550 _0836_
*1551 _0837_
*1552 _0838_
*1553 _0839_
*1554 _0840_
*1555 _0841_
*1556 _0842_
*1557 _0843_
*1558 _0844_
*1559 _0845_
*1560 _0846_
*1561 _0847_
*1562 _0848_
*1563 _0849_
*1564 _0850_
*1565 _0851_
*1566 _0852_
*1567 _0853_
*1568 _0854_
*1569 _0855_
*1570 _0856_
*1571 _0857_
*1572 _0858_
*1573 _0859_
*1574 _0860_
*1575 _0861_
*1576 _0862_
*1577 _0863_
*1578 _0864_
*1579 _0865_
*1580 _0866_
*1581 _0867_
*1582 _0868_
*1583 _0869_
*1584 _0870_
*1585 _0871_
*1586 _0872_
*1587 _0873_
*1588 _0874_
*1589 _0875_
*1590 _0876_
*1591 _0877_
*1592 _0878_
*1593 _0879_
*1594 _0880_
*1595 _0881_
*1596 _0882_
*1597 _0883_
*1598 _0884_
*1599 _0885_
*1600 _0886_
*1601 _0887_
*1602 _0888_
*1603 _0889_
*1604 _0890_
*1605 _0891_
*1606 _0892_
*1607 _0893_
*1608 _0894_
*1609 _0895_
*1610 _0896_
*1611 _0897_
*1612 _0898_
*1613 _0899_
*1614 _0900_
*1615 _0901_
*1616 _0902_
*1617 _0903_
*1618 _0904_
*1619 _0905_
*1620 _0906_
*1621 _0907_
*1622 _0908_
*1623 _0909_
*1624 _0910_
*1625 _0911_
*1626 _0912_
*1627 _0913_
*1628 _0914_
*1629 _0915_
*1630 _0916_
*1631 _0917_
*1632 _0918_
*1633 _0919_
*1634 _0920_
*1635 _0921_
*1636 _0922_
*1637 _0923_
*1638 _0924_
*1639 _0925_
*1640 _0926_
*1641 _0927_
*1642 _0928_
*1643 _0929_
*1644 _0930_
*1645 _0931_
*1646 _0932_
*1647 _0933_
*1648 _0934_
*1649 _0935_
*1650 _0936_
*1651 _0937_
*1652 _0938_
*1653 _0939_
*1654 _0940_
*1655 _0941_
*1656 _0942_
*1657 _0943_
*1658 _0944_
*1659 _0945_
*1660 _0946_
*1661 _0947_
*1662 _0948_
*1663 _0949_
*1664 _0950_
*1665 _0951_
*1666 _0952_
*1667 _0953_
*1668 _0954_
*1669 _0955_
*1670 _0956_
*1671 _0957_
*1672 _0958_
*1673 _0959_
*1674 _0960_
*1675 _0961_
*1676 _0962_
*1677 _0963_
*1678 _0964_
*1679 _0965_
*1680 _0966_
*1681 _0967_
*1682 _0968_
*1683 _0969_
*1684 _0970_
*1685 _0971_
*1686 _0972_
*1687 _0973_
*1688 _0974_
*1689 _0975_
*1690 _0976_
*1691 _0977_
*1692 _0978_
*1693 _0979_
*1694 _0980_
*1695 _0981_
*1696 _0982_
*1697 _0983_
*1698 _0984_
*1699 _0985_
*1700 _0986_
*1701 _0987_
*1702 _0988_
*1703 _0989_
*1704 _0990_
*1705 _0991_
*1706 _0992_
*1707 _0993_
*1708 _0994_
*1709 _0995_
*1710 _0996_
*1711 _0997_
*1712 _0998_
*1713 _0999_
*1714 _1000_
*1715 _1001_
*1716 _1002_
*1717 _1003_
*1718 _1004_
*1719 _1005_
*1720 _1006_
*1721 _1007_
*1722 _1008_
*1723 _1009_
*1724 _1010_
*1725 _1011_
*1726 _1012_
*1727 _1013_
*1728 _1014_
*1729 _1015_
*1730 _1016_
*1731 _1017_
*1732 _1018_
*1733 _1019_
*1734 _1020_
*1735 _1021_
*1736 _1022_
*1737 _1023_
*1738 _1024_
*1739 _1025_
*1740 _1026_
*1741 _1027_
*1742 _1028_
*1743 _1029_
*1744 _1030_
*1745 _1031_
*1746 _1032_
*1747 _1033_
*1748 _1034_
*1749 _1035_
*1750 _1036_
*1751 _1037_
*1752 _1038_
*1753 _1039_
*1754 _1040_
*1755 _1041_
*1756 _1042_
*1757 _1043_
*1758 _1044_
*1759 _1045_
*1760 _1046_
*1761 _1047_
*1762 _1048_
*1763 _1049_
*1764 _1050_
*1765 _1051_
*1766 _1052_
*1767 _1053_
*1768 _1054_
*1769 _1055_
*1770 _1056_
*1771 _1057_
*1772 _1058_
*1773 _1059_
*1774 _1060_
*1775 _1061_
*1776 _1062_
*1777 _1063_
*1778 _1064_
*1779 _1065_
*1780 _1066_
*1781 _1067_
*1782 _1068_
*1783 _1069_
*1784 _1070_
*1785 _1071_
*1786 _1072_
*1787 _1073_
*1788 _1074_
*1789 _1075_
*1790 _1076_
*1791 _1077_
*1792 _1078_
*1793 _1079_
*1794 _1080_
*1795 _1081_
*1796 _1082_
*1797 _1083_
*1798 _1084_
*1799 _1085_
*1800 _1086_
*1801 _1087_
*1802 _1088_
*1803 _1089_
*1804 _1090_
*1805 _1091_
*1806 _1092_
*1807 _1093_
*1808 _1094_
*1809 _1095_
*1810 _1096_
*1811 _1097_
*1812 _1098_
*1813 _1099_
*1814 _1100_
*1815 _1101_
*1816 _1102_
*1817 _1103_
*1818 _1104_
*1819 _1105_
*1820 _1106_
*1821 _1107_
*1822 _1108_
*1823 _1109_
*1824 _1110_
*1825 _1111_
*1826 _1112_
*1827 _1113_
*1828 _1114_
*1829 _1115_
*1830 _1116_
*1831 _1117_
*1832 _1118_
*1833 _1119_
*1834 _1120_
*1835 _1121_
*1836 _1122_
*1837 _1123_
*1838 _1124_
*1839 _1125_
*1840 _1126_
*1841 _1127_
*1842 _1128_
*1843 _1129_
*1844 _1130_
*1845 _1131_
*1846 _1132_
*1847 _1133_
*1848 _1134_
*1849 _1135_
*1850 _1136_
*1851 _1137_
*1852 _1138_
*1853 _1139_
*1854 _1140_
*1855 _1141_
*1856 _1142_
*1857 _1143_
*1858 _1144_
*1859 _1145_
*1860 _1146_
*1861 _1147_
*1862 _1148_
*1863 _1149_
*1864 _1150_
*1865 _1151_
*1866 _1152_
*1867 _1153_
*1868 _1154_
*1869 _1155_
*1870 _1156_
*1871 _1157_
*1872 _1158_
*1873 _1159_
*1874 _1160_
*1875 _1161_
*1876 _1162_
*1877 _1163_
*1878 _1164_
*1879 _1165_
*1880 _1166_
*1881 _1167_
*1882 _1168_
*1883 _1169_
*1884 _1170_
*1885 _1171_
*1886 _1172_
*1887 _1173_
*1888 _1174_
*1889 _1175_
*1890 _1176_
*1891 _1177_
*1892 _1178_
*1893 _1179_
*1894 _1180_
*1895 _1181_
*1896 _1182_
*1897 _1183_
*1898 _1184_
*1899 _1185_
*1900 _1186_
*1901 _1187_
*1902 _1188_
*1903 _1189_
*1904 _1190_
*1905 _1191_
*1906 _1192_
*1907 _1193_
*1908 _1194_
*1909 _1195_
*1910 _1196_
*1911 _1197_
*1912 _1198_
*1913 _1199_
*1914 _1200_
*1915 _1201_
*1916 _1202_
*1917 _1203_
*1918 _1204_
*1919 _1205_
*1920 _1206_
*1921 _1207_
*1922 _1208_
*1923 _1209_
*1924 _1210_
*1925 _1211_
*1926 _1212_
*1927 _1213_
*1928 _1214_
*1929 _1215_
*1930 _1216_
*1931 _1217_
*1932 _1218_
*1933 _1219_
*1934 _1220_
*1935 _1221_
*1936 _1222_
*1937 _1223_
*1938 _1224_
*1939 _1225_
*1940 _1226_
*1941 _1227_
*1942 _1228_
*1943 _1229_
*1944 _1230_
*1945 _1231_
*1946 _1232_
*1947 _1233_
*1948 _1234_
*1949 _1235_
*1950 _1236_
*1951 _1237_
*1952 _1238_
*1953 _1239_
*1954 _1240_
*1955 _1241_
*1956 _1242_
*1957 _1243_
*1958 _1244_
*1959 _1245_
*1960 _1246_
*1961 _1247_
*1962 _1248_
*1963 _1249_
*1964 _1250_
*1965 _1251_
*1966 _1252_
*1967 _1253_
*1968 _1254_
*1969 _1255_
*1970 _1256_
*1971 _1257_
*1972 _1258_
*1973 _1259_
*1974 _1260_
*1975 _1261_
*1976 _1262_
*1977 _1263_
*1978 _1264_
*1979 _1265_
*1980 _1266_
*1981 _1267_
*1982 _1268_
*1983 _1269_
*1984 _1270_
*1985 _1271_
*1986 clknet_0_spm\.clk
*1987 clknet_1_0_0_spm\.clk
*1988 clknet_1_0_1_spm\.clk
*1989 clknet_1_1_0_spm\.clk
*1990 clknet_1_1_1_spm\.clk
*1991 clknet_2_0_0_spm\.clk
*1992 clknet_2_1_0_spm\.clk
*1993 clknet_2_2_0_spm\.clk
*1994 clknet_2_3_0_spm\.clk
*1995 clknet_3_0_0_spm\.clk
*1996 clknet_3_1_0_spm\.clk
*1997 clknet_3_2_0_spm\.clk
*1998 clknet_3_3_0_spm\.clk
*1999 clknet_3_4_0_spm\.clk
*2000 clknet_3_5_0_spm\.clk
*2001 clknet_3_6_0_spm\.clk
*2002 clknet_3_7_0_spm\.clk
*2003 clknet_leaf_10_spm\.clk
*2004 clknet_leaf_11_spm\.clk
*2005 clknet_leaf_12_spm\.clk
*2006 clknet_leaf_13_spm\.clk
*2007 clknet_leaf_15_spm\.clk
*2008 clknet_leaf_16_spm\.clk
*2009 clknet_leaf_17_spm\.clk
*2010 clknet_leaf_18_spm\.clk
*2011 clknet_leaf_19_spm\.clk
*2012 clknet_leaf_1_spm\.clk
*2013 clknet_leaf_20_spm\.clk
*2014 clknet_leaf_21_spm\.clk
*2015 clknet_leaf_22_spm\.clk
*2016 clknet_leaf_23_spm\.clk
*2017 clknet_leaf_24_spm\.clk
*2018 clknet_leaf_26_spm\.clk
*2019 clknet_leaf_27_spm\.clk
*2020 clknet_leaf_28_spm\.clk
*2021 clknet_leaf_29_spm\.clk
*2022 clknet_leaf_2_spm\.clk
*2023 clknet_leaf_33_spm\.clk
*2024 clknet_leaf_34_spm\.clk
*2025 clknet_leaf_35_spm\.clk
*2026 clknet_leaf_36_spm\.clk
*2027 clknet_leaf_38_spm\.clk
*2028 clknet_leaf_3_spm\.clk
*2029 clknet_leaf_40_spm\.clk
*2030 clknet_leaf_42_spm\.clk
*2031 clknet_leaf_43_spm\.clk
*2032 clknet_leaf_44_spm\.clk
*2033 clknet_leaf_45_spm\.clk
*2034 clknet_leaf_46_spm\.clk
*2035 clknet_leaf_47_spm\.clk
*2036 clknet_leaf_48_spm\.clk
*2037 clknet_leaf_49_spm\.clk
*2038 clknet_leaf_4_spm\.clk
*2039 clknet_leaf_50_spm\.clk
*2040 clknet_leaf_51_spm\.clk
*2041 clknet_leaf_52_spm\.clk
*2042 clknet_leaf_53_spm\.clk
*2043 clknet_leaf_54_spm\.clk
*2044 clknet_leaf_56_spm\.clk
*2045 clknet_leaf_57_spm\.clk
*2046 clknet_leaf_59_spm\.clk
*2047 clknet_leaf_5_spm\.clk
*2048 clknet_leaf_60_spm\.clk
*2049 clknet_leaf_61_spm\.clk
*2050 clknet_leaf_62_spm\.clk
*2051 clknet_leaf_63_spm\.clk
*2052 clknet_leaf_64_spm\.clk
*2053 clknet_leaf_65_spm\.clk
*2054 clknet_leaf_66_spm\.clk
*2055 clknet_leaf_67_spm\.clk
*2056 clknet_leaf_6_spm\.clk
*2057 clknet_leaf_70_spm\.clk
*2058 clknet_leaf_71_spm\.clk
*2059 clknet_leaf_72_spm\.clk
*2060 clknet_leaf_73_spm\.clk
*2061 clknet_leaf_74_spm\.clk